/*---------------------------------------------------------------------------*\
| =========                 |                                                 |
| \\      /  F ield         | OpenFOAM: The Open Source CFD Toolbox           |
|  \\    /   O peration     | Version:  4.0                                   |
|   \\  /    A nd           | Web:      www.OpenFOAM.org                      |
|    \\/     M anipulation  |                                                 |
\*---------------------------------------------------------------------------*/
Build  : 4.0-665f1db4c1f1
Exec   : pupoBuoyantSimpleFoam
Date   : Sep 27 2016
Time   : 00:32:15
Host   : "FAB2000"
PID    : 19567
Case   : /home/pedro/Documents/ThesisProject/OpenFoam/validation1rod/fvDOM
nProcs : 1
sigFpe : Enabling floating point exception trapping (FOAM_SIGFPE).
fileModificationChecking : Monitoring run-time modified files using timeStampMaster
allowSystemOperations : Allowing user-supplied system call operations

// * * * * * * * * * * * * * * * * * * * * * * * * * * * * * * * * * * * * * //
Create time

--> FOAM Warning : 
    From function void* Foam::dlOpen(const Foam::fileName&, bool)
    in file POSIX.C at line 1037
    dlopen error : radiatingwall.so: cannot open shared object file: No such file or directory
--> FOAM Warning : 
    From function bool Foam::dlLibraryTable::open(const Foam::fileName&, bool)
    in file db/dynamicLibrary/dlLibraryTable/dlLibraryTable.C at line 97
    could not load "radiatingwall.so"
Create mesh for time = 0


SIMPLE: convergence criteria
    field p_rgh	 tolerance 1e-06
    field Uz	 tolerance 1e-06
    field h	 tolerance 1e-06

Reading thermophysical properties

Selecting thermodynamics package 
{
    type            heRhoThermo;
    mixture         pureMixture;
    transport       sutherland;
    thermo          hConst;
    equationOfState perfectGas;
    specie          specie;
    energy          sensibleEnthalpy;
}


Reading g

Reading hRef
Calculating field g.h

Selecting turbulence model type laminar
No MRF models present

Selecting radiationModel fvDOM
Selecting absorptionEmissionModel constantAbsorptionEmission
Selecting scatterModel none
fvDOM : Allocated 16 rays with average orientation:
	I0 : omega : 	0.78539816
	I1 : omega : 	0.78539816
	I2 : omega : 	0.78539816
	I3 : omega : 	0.78539816
	I4 : omega : 	0.78539816
	I5 : omega : 	0.78539816
	I6 : omega : 	0.78539816
	I7 : omega : 	0.78539816
	I8 : omega : 	0.78539816
	I9 : omega : 	0.78539816
	I10 : omega : 	0.78539816
	I11 : omega : 	0.78539816
	I12 : omega : 	0.78539816
	I13 : omega : 	0.78539816
	I14 : omega : 	0.78539816
	I15 : omega : 	0.78539816

 
rho max/avg/min : 1.2016452 1.2015414 1.2014377
T   max/avg/min : 293.7 293.7 293.7
P   max/avg/min : 101324.91 101316.16 101307.41
Prg max/avg/min : 101325 101325 101325
U   max/avg/min : 0 0 0
 
sngrad(rho) :-0.00013977519 -0.00013977519 -0.00013977519
 
No finite volume options present


Starting Iteration loop

Iteration Number = 1

DILUPBiCG:  Solving for Ux, Initial residual = 2.3034354e-10, Final residual = 2.3034354e-10, No Iterations 0
DILUPBiCG:  Solving for Uy, Initial residual = 4.8698736e-07, Final residual = 2.590422e-09, No Iterations 1
DILUPBiCG:  Solving for Uz, Initial residual = 1, Final residual = 0.0001017747, No Iterations 2
DILUPBiCG:  Solving for h, Initial residual = 1, Final residual = 0.00045973819, No Iterations 1
Radiation solver iter: 0
GAMG:  Solving for ILambda_0_0, Initial residual = 1, Final residual = 1.8572146e-17, No Iterations 1
GAMG:  Solving for ILambda_1_0, Initial residual = 1, Final residual = 9.3512642e-17, No Iterations 1
GAMG:  Solving for ILambda_2_0, Initial residual = 1, Final residual = 8.1564892e-17, No Iterations 1
GAMG:  Solving for ILambda_3_0, Initial residual = 1, Final residual = 3.1019852e-17, No Iterations 1
GAMG:  Solving for ILambda_4_0, Initial residual = 1, Final residual = 3.8080056e-08, No Iterations 2
GAMG:  Solving for ILambda_5_0, Initial residual = 1, Final residual = 5.1444585e-06, No Iterations 2
GAMG:  Solving for ILambda_6_0, Initial residual = 1, Final residual = 5.1444585e-06, No Iterations 2
GAMG:  Solving for ILambda_7_0, Initial residual = 1, Final residual = 3.8080056e-08, No Iterations 2
GAMG:  Solving for ILambda_8_0, Initial residual = 1, Final residual = 4.892839e-06, No Iterations 1
GAMG:  Solving for ILambda_9_0, Initial residual = 1, Final residual = 8.8006748e-05, No Iterations 1
GAMG:  Solving for ILambda_10_0, Initial residual = 1, Final residual = 8.8006748e-05, No Iterations 1
GAMG:  Solving for ILambda_11_0, Initial residual = 1, Final residual = 4.892839e-06, No Iterations 1
GAMG:  Solving for ILambda_12_0, Initial residual = 1, Final residual = 3.6451623e-17, No Iterations 1
GAMG:  Solving for ILambda_13_0, Initial residual = 1, Final residual = 1.3744107e-16, No Iterations 1
GAMG:  Solving for ILambda_14_0, Initial residual = 1, Final residual = 1.4185842e-16, No Iterations 1
GAMG:  Solving for ILambda_15_0, Initial residual = 1, Final residual = 3.4002825e-17, No Iterations 1
Radiation solver iter: 1
GAMG:  Solving for ILambda_0_0, Initial residual = 0.086503908, Final residual = 3.2865144e-18, No Iterations 1
GAMG:  Solving for ILambda_1_0, Initial residual = 0.056914409, Final residual = 1.3546269e-17, No Iterations 1
GAMG:  Solving for ILambda_2_0, Initial residual = 0.056914409, Final residual = 1.1918425e-17, No Iterations 1
GAMG:  Solving for ILambda_3_0, Initial residual = 0.086503908, Final residual = 6.8177829e-18, No Iterations 1
GAMG:  Solving for ILambda_4_0, Initial residual = 0.40223023, Final residual = 9.285614e-05, No Iterations 1
GAMG:  Solving for ILambda_5_0, Initial residual = 0.29593154, Final residual = 1.3022516e-06, No Iterations 2
GAMG:  Solving for ILambda_6_0, Initial residual = 0.29593154, Final residual = 1.3022516e-06, No Iterations 2
GAMG:  Solving for ILambda_7_0, Initial residual = 0.40223023, Final residual = 9.285614e-05, No Iterations 1
GAMG:  Solving for ILambda_8_0, Initial residual = 0.086503941, Final residual = 3.0547108e-07, No Iterations 1
GAMG:  Solving for ILambda_9_0, Initial residual = 0.056914873, Final residual = 5.1362144e-06, No Iterations 1
GAMG:  Solving for ILambda_10_0, Initial residual = 0.056914873, Final residual = 5.1362144e-06, No Iterations 1
GAMG:  Solving for ILambda_11_0, Initial residual = 0.086503941, Final residual = 3.0547108e-07, No Iterations 1
GAMG:  Solving for ILambda_12_0, Initial residual = 0.40223023, Final residual = 7.2978863e-18, No Iterations 1
GAMG:  Solving for ILambda_13_0, Initial residual = 0.29593179, Final residual = 4.5463557e-17, No Iterations 1
GAMG:  Solving for ILambda_14_0, Initial residual = 0.29593179, Final residual = 4.4231366e-17, No Iterations 1
GAMG:  Solving for ILambda_15_0, Initial residual = 0.40223023, Final residual = 9.0626937e-18, No Iterations 1
Radiation solver iter: 2
GAMG:  Solving for ILambda_0_0, Initial residual = 0.035595736, Final residual = 1.6406035e-18, No Iterations 1
GAMG:  Solving for ILambda_1_0, Initial residual = 0.026921129, Final residual = 7.7994878e-18, No Iterations 1
GAMG:  Solving for ILambda_2_0, Initial residual = 0.026921129, Final residual = 9.0727215e-18, No Iterations 1
GAMG:  Solving for ILambda_3_0, Initial residual = 0.035595736, Final residual = 1.5691819e-18, No Iterations 1
GAMG:  Solving for ILambda_4_0, Initial residual = 0.16200955, Final residual = 3.3304057e-05, No Iterations 1
GAMG:  Solving for ILambda_5_0, Initial residual = 0.1753761, Final residual = 6.4894084e-07, No Iterations 2
GAMG:  Solving for ILambda_6_0, Initial residual = 0.1753761, Final residual = 6.4894084e-07, No Iterations 2
GAMG:  Solving for ILambda_7_0, Initial residual = 0.16200955, Final residual = 3.3304057e-05, No Iterations 1
GAMG:  Solving for ILambda_8_0, Initial residual = 0.035595725, Final residual = 1.3776209e-07, No Iterations 1
GAMG:  Solving for ILambda_9_0, Initial residual = 0.026921034, Final residual = 1.8570643e-06, No Iterations 1
GAMG:  Solving for ILambda_10_0, Initial residual = 0.026921034, Final residual = 1.8570643e-06, No Iterations 1
GAMG:  Solving for ILambda_11_0, Initial residual = 0.035595725, Final residual = 1.3776209e-07, No Iterations 1
GAMG:  Solving for ILambda_12_0, Initial residual = 0.16201095, Final residual = 2.6569345e-17, No Iterations 1
GAMG:  Solving for ILambda_13_0, Initial residual = 0.1753761, Final residual = 6.314033e-17, No Iterations 1
GAMG:  Solving for ILambda_14_0, Initial residual = 0.1753761, Final residual = 7.2721173e-17, No Iterations 1
GAMG:  Solving for ILambda_15_0, Initial residual = 0.16201095, Final residual = 2.8106374e-17, No Iterations 1
Radiation solver iter: 3
GAMG:  Solving for ILambda_0_0, Initial residual = 0.023063826, Final residual = 4.8241567e-18, No Iterations 1
GAMG:  Solving for ILambda_1_0, Initial residual = 0.019626946, Final residual = 1.0095374e-17, No Iterations 1
GAMG:  Solving for ILambda_2_0, Initial residual = 0.019626946, Final residual = 9.3176756e-18, No Iterations 1
GAMG:  Solving for ILambda_3_0, Initial residual = 0.023063826, Final residual = 3.3311714e-18, No Iterations 1
GAMG:  Solving for ILambda_4_0, Initial residual = 0.12092176, Final residual = 1.4134926e-05, No Iterations 1
GAMG:  Solving for ILambda_5_0, Initial residual = 0.12443352, Final residual = 5.8309014e-07, No Iterations 2
GAMG:  Solving for ILambda_6_0, Initial residual = 0.12443352, Final residual = 5.8309014e-07, No Iterations 2
GAMG:  Solving for ILambda_7_0, Initial residual = 0.12092176, Final residual = 1.4134926e-05, No Iterations 1
GAMG:  Solving for ILambda_8_0, Initial residual = 0.023063809, Final residual = 9.5882448e-08, No Iterations 1
GAMG:  Solving for ILambda_9_0, Initial residual = 0.019627043, Final residual = 1.0542843e-06, No Iterations 1
GAMG:  Solving for ILambda_10_0, Initial residual = 0.019627043, Final residual = 1.0542843e-06, No Iterations 1
GAMG:  Solving for ILambda_11_0, Initial residual = 0.023063809, Final residual = 9.5882448e-08, No Iterations 1
GAMG:  Solving for ILambda_12_0, Initial residual = 0.1209149, Final residual = 1.649241e-17, No Iterations 1
GAMG:  Solving for ILambda_13_0, Initial residual = 0.12443356, Final residual = 7.2407757e-17, No Iterations 1
GAMG:  Solving for ILambda_14_0, Initial residual = 0.12443356, Final residual = 7.1459243e-17, No Iterations 1
GAMG:  Solving for ILambda_15_0, Initial residual = 0.1209149, Final residual = 1.2691272e-17, No Iterations 1
Radiation solver iter: 4
GAMG:  Solving for ILambda_0_0, Initial residual = 0.017305503, Final residual = 4.6734833e-18, No Iterations 1
GAMG:  Solving for ILambda_1_0, Initial residual = 0.0154325, Final residual = 1.0064873e-17, No Iterations 1
GAMG:  Solving for ILambda_2_0, Initial residual = 0.0154325, Final residual = 1.1172383e-17, No Iterations 1
GAMG:  Solving for ILambda_3_0, Initial residual = 0.017305503, Final residual = 6.049166e-18, No Iterations 1
GAMG:  Solving for ILambda_4_0, Initial residual = 0.097202135, Final residual = 4.9610275e-06, No Iterations 1
GAMG:  Solving for ILambda_5_0, Initial residual = 0.10330088, Final residual = 2.9249587e-07, No Iterations 2
GAMG:  Solving for ILambda_6_0, Initial residual = 0.10330088, Final residual = 2.9249587e-07, No Iterations 2
GAMG:  Solving for ILambda_7_0, Initial residual = 0.097202135, Final residual = 4.9610275e-06, No Iterations 1
GAMG:  Solving for ILambda_8_0, Initial residual = 0.017305487, Final residual = 7.3605978e-08, No Iterations 1
GAMG:  Solving for ILambda_9_0, Initial residual = 0.01543247, Final residual = 8.6395516e-07, No Iterations 1
GAMG:  Solving for ILambda_10_0, Initial residual = 0.01543247, Final residual = 8.6395516e-07, No Iterations 1
GAMG:  Solving for ILambda_11_0, Initial residual = 0.017305487, Final residual = 7.3605978e-08, No Iterations 1
GAMG:  Solving for ILambda_12_0, Initial residual = 0.09719974, Final residual = 1.8236763e-17, No Iterations 1
GAMG:  Solving for ILambda_13_0, Initial residual = 0.10330095, Final residual = 7.8505017e-17, No Iterations 1
GAMG:  Solving for ILambda_14_0, Initial residual = 0.10330095, Final residual = 7.2321987e-17, No Iterations 1
GAMG:  Solving for ILambda_15_0, Initial residual = 0.09719974, Final residual = 1.5528026e-17, No Iterations 1
Radiation solver iter: 5
GAMG:  Solving for ILambda_0_0, Initial residual = 0.013776826, Final residual = 5.4692066e-18, No Iterations 1
GAMG:  Solving for ILambda_1_0, Initial residual = 0.013040935, Final residual = 1.0353549e-17, No Iterations 1
GAMG:  Solving for ILambda_2_0, Initial residual = 0.013040935, Final residual = 1.2063787e-17, No Iterations 1
GAMG:  Solving for ILambda_3_0, Initial residual = 0.013776826, Final residual = 2.7744678e-18, No Iterations 1
GAMG:  Solving for ILambda_4_0, Initial residual = 0.076971625, Final residual = 1.9420526e-06, No Iterations 1
GAMG:  Solving for ILambda_5_0, Initial residual = 0.083395835, Final residual = 8.9311991e-05, No Iterations 1
GAMG:  Solving for ILambda_6_0, Initial residual = 0.083395835, Final residual = 8.9311991e-05, No Iterations 1
GAMG:  Solving for ILambda_7_0, Initial residual = 0.076971625, Final residual = 1.9420526e-06, No Iterations 1
GAMG:  Solving for ILambda_8_0, Initial residual = 0.013776821, Final residual = 5.973574e-08, No Iterations 1
GAMG:  Solving for ILambda_9_0, Initial residual = 0.013041138, Final residual = 7.7109474e-07, No Iterations 1
GAMG:  Solving for ILambda_10_0, Initial residual = 0.013041138, Final residual = 7.7109474e-07, No Iterations 1
GAMG:  Solving for ILambda_11_0, Initial residual = 0.013776821, Final residual = 5.973574e-08, No Iterations 1
GAMG:  Solving for ILambda_12_0, Initial residual = 0.076963424, Final residual = 1.9469444e-17, No Iterations 1
GAMG:  Solving for ILambda_13_0, Initial residual = 0.083395898, Final residual = 8.6387889e-17, No Iterations 1
GAMG:  Solving for ILambda_14_0, Initial residual = 0.083395898, Final residual = 8.2968915e-17, No Iterations 1
GAMG:  Solving for ILambda_15_0, Initial residual = 0.076963424, Final residual = 1.594589e-17, No Iterations 1
Radiation solver iter: 6
GAMG:  Solving for ILambda_0_0, Initial residual = 0.011638902, Final residual = 3.758759e-18, No Iterations 1
GAMG:  Solving for ILambda_1_0, Initial residual = 0.011523973, Final residual = 1.1363114e-17, No Iterations 1
GAMG:  Solving for ILambda_2_0, Initial residual = 0.011523973, Final residual = 1.3388726e-17, No Iterations 1
GAMG:  Solving for ILambda_3_0, Initial residual = 0.011638902, Final residual = 4.579843e-18, No Iterations 1
GAMG:  Solving for ILambda_4_0, Initial residual = 0.065729267, Final residual = 4.8572874e-06, No Iterations 1
GAMG:  Solving for ILambda_5_0, Initial residual = 0.067364297, Final residual = 5.5396425e-05, No Iterations 1
GAMG:  Solving for ILambda_6_0, Initial residual = 0.067364297, Final residual = 5.5396425e-05, No Iterations 1
GAMG:  Solving for ILambda_7_0, Initial residual = 0.065729267, Final residual = 4.8572874e-06, No Iterations 1
GAMG:  Solving for ILambda_8_0, Initial residual = 0.011638883, Final residual = 5.3853536e-08, No Iterations 1
GAMG:  Solving for ILambda_9_0, Initial residual = 0.011524033, Final residual = 6.9063686e-07, No Iterations 1
GAMG:  Solving for ILambda_10_0, Initial residual = 0.011524033, Final residual = 6.9063686e-07, No Iterations 1
GAMG:  Solving for ILambda_11_0, Initial residual = 0.011638883, Final residual = 5.3853536e-08, No Iterations 1
GAMG:  Solving for ILambda_12_0, Initial residual = 0.06572367, Final residual = 1.5861668e-17, No Iterations 1
GAMG:  Solving for ILambda_13_0, Initial residual = 0.06736026, Final residual = 8.9127901e-17, No Iterations 1
GAMG:  Solving for ILambda_14_0, Initial residual = 0.06736026, Final residual = 8.3366568e-17, No Iterations 1
GAMG:  Solving for ILambda_15_0, Initial residual = 0.06572367, Final residual = 2.0044644e-17, No Iterations 1
Radiation solver iter: 7
GAMG:  Solving for ILambda_0_0, Initial residual = 0.010114904, Final residual = 3.8512624e-18, No Iterations 1
GAMG:  Solving for ILambda_1_0, Initial residual = 0.010546477, Final residual = 1.2898427e-17, No Iterations 1
GAMG:  Solving for ILambda_2_0, Initial residual = 0.010546477, Final residual = 1.2971859e-17, No Iterations 1
GAMG:  Solving for ILambda_3_0, Initial residual = 0.010114904, Final residual = 5.7156887e-18, No Iterations 1
GAMG:  Solving for ILambda_4_0, Initial residual = 0.057343241, Final residual = 6.2831009e-06, No Iterations 1
GAMG:  Solving for ILambda_5_0, Initial residual = 0.058551785, Final residual = 5.1944473e-05, No Iterations 1
GAMG:  Solving for ILambda_6_0, Initial residual = 0.058551785, Final residual = 5.1944473e-05, No Iterations 1
GAMG:  Solving for ILambda_7_0, Initial residual = 0.057343241, Final residual = 6.2831009e-06, No Iterations 1
GAMG:  Solving for ILambda_8_0, Initial residual = 0.010114889, Final residual = 5.0217909e-08, No Iterations 1
GAMG:  Solving for ILambda_9_0, Initial residual = 0.010546572, Final residual = 6.3925228e-07, No Iterations 1
GAMG:  Solving for ILambda_10_0, Initial residual = 0.010546572, Final residual = 6.3925228e-07, No Iterations 1
GAMG:  Solving for ILambda_11_0, Initial residual = 0.010114889, Final residual = 5.0217909e-08, No Iterations 1
GAMG:  Solving for ILambda_12_0, Initial residual = 0.057338691, Final residual = 3.1103863e-17, No Iterations 1
GAMG:  Solving for ILambda_13_0, Initial residual = 0.058556618, Final residual = 8.7002007e-17, No Iterations 1
GAMG:  Solving for ILambda_14_0, Initial residual = 0.058556618, Final residual = 8.4580905e-17, No Iterations 1
GAMG:  Solving for ILambda_15_0, Initial residual = 0.057338691, Final residual = 3.058824e-17, No Iterations 1
Radiation solver iter: 8
GAMG:  Solving for ILambda_0_0, Initial residual = 0.0088852017, Final residual = 3.8424871e-18, No Iterations 1
GAMG:  Solving for ILambda_1_0, Initial residual = 0.0098817017, Final residual = 1.1102349e-17, No Iterations 1
GAMG:  Solving for ILambda_2_0, Initial residual = 0.0098817017, Final residual = 1.2155749e-17, No Iterations 1
GAMG:  Solving for ILambda_3_0, Initial residual = 0.0088852017, Final residual = 4.6602778e-18, No Iterations 1
GAMG:  Solving for ILambda_4_0, Initial residual = 0.05021886, Final residual = 6.8074631e-06, No Iterations 1
GAMG:  Solving for ILambda_5_0, Initial residual = 0.04973478, Final residual = 4.332159e-05, No Iterations 1
GAMG:  Solving for ILambda_6_0, Initial residual = 0.04973478, Final residual = 4.332159e-05, No Iterations 1
GAMG:  Solving for ILambda_7_0, Initial residual = 0.05021886, Final residual = 6.8074631e-06, No Iterations 1
GAMG:  Solving for ILambda_8_0, Initial residual = 0.0088851981, Final residual = 4.7416466e-08, No Iterations 1
GAMG:  Solving for ILambda_9_0, Initial residual = 0.0098818372, Final residual = 6.0000118e-07, No Iterations 1
GAMG:  Solving for ILambda_10_0, Initial residual = 0.0098818372, Final residual = 6.0000118e-07, No Iterations 1
GAMG:  Solving for ILambda_11_0, Initial residual = 0.0088851981, Final residual = 4.7416466e-08, No Iterations 1
GAMG:  Solving for ILambda_12_0, Initial residual = 0.050214691, Final residual = 4.0294959e-17, No Iterations 1
GAMG:  Solving for ILambda_13_0, Initial residual = 0.049739629, Final residual = 9.6869602e-17, No Iterations 1
GAMG:  Solving for ILambda_14_0, Initial residual = 0.049739629, Final residual = 9.3312293e-17, No Iterations 1
GAMG:  Solving for ILambda_15_0, Initial residual = 0.050214691, Final residual = 3.4380961e-17, No Iterations 1
Radiation solver iter: 9
GAMG:  Solving for ILambda_0_0, Initial residual = 0.0079201274, Final residual = 3.8928531e-18, No Iterations 1
GAMG:  Solving for ILambda_1_0, Initial residual = 0.009453198, Final residual = 1.3470966e-17, No Iterations 1
GAMG:  Solving for ILambda_2_0, Initial residual = 0.009453198, Final residual = 1.3520526e-17, No Iterations 1
GAMG:  Solving for ILambda_3_0, Initial residual = 0.0079201274, Final residual = 4.6326163e-18, No Iterations 1
GAMG:  Solving for ILambda_4_0, Initial residual = 0.044937242, Final residual = 6.6900921e-06, No Iterations 1
GAMG:  Solving for ILambda_5_0, Initial residual = 0.04430536, Final residual = 2.8403267e-05, No Iterations 1
GAMG:  Solving for ILambda_6_0, Initial residual = 0.04430536, Final residual = 2.8403267e-05, No Iterations 1
GAMG:  Solving for ILambda_7_0, Initial residual = 0.044937242, Final residual = 6.6900921e-06, No Iterations 1
GAMG:  Solving for ILambda_8_0, Initial residual = 0.0079201227, Final residual = 4.4783236e-08, No Iterations 1
GAMG:  Solving for ILambda_9_0, Initial residual = 0.0094533389, Final residual = 5.8107843e-07, No Iterations 1
GAMG:  Solving for ILambda_10_0, Initial residual = 0.0094533389, Final residual = 5.8107843e-07, No Iterations 1
GAMG:  Solving for ILambda_11_0, Initial residual = 0.0079201227, Final residual = 4.4783236e-08, No Iterations 1
GAMG:  Solving for ILambda_12_0, Initial residual = 0.044934405, Final residual = 3.734525e-17, No Iterations 1
GAMG:  Solving for ILambda_13_0, Initial residual = 0.044322461, Final residual = 9.3981084e-17, No Iterations 1
GAMG:  Solving for ILambda_14_0, Initial residual = 0.044322461, Final residual = 9.5073083e-17, No Iterations 1
GAMG:  Solving for ILambda_15_0, Initial residual = 0.044934405, Final residual = 4.0096567e-17, No Iterations 1
GAMG:  Solving for p_rgh, Initial residual = 0.81992255, Final residual = 0.00041146374, No Iterations 2
time step continuity errors : sum local = 0.00010134625, global = -2.3029903e-05, cumulative = -2.3029903e-05
ExecutionTime = 0.51 s  ClockTime = 1 s
Inflow      : -1.231389e-07 [kg/s]
Outflow     : -1.4234582e-07 [kg/s]
EnergyInflow  : -0.03638289 [W]
EnergyOutflow : -0.04205781 [W]
EnergyBalance : -0.0056749204 [W]
rho max/avg/min : 1.2016452 1.1953618 1.0955956
T   max/avg/min : 322.07345 295.29785 293.7
P   max/avg/min : 101324.91 101316.16 101307.41
Prg max/avg/min : 101325 101324.95 101323.45
U   max/avg/min : 8.1647089e-05 -4.1757642e-05 -0.00052602968
Prg max-min : 1.5504991
 
sngrad(rho) :14.112139 0.82397835 -0.00013681305
 
Iteration Number = 2

DILUPBiCG:  Solving for Ux, Initial residual = 0.34590483, Final residual = 2.5860568e-05, No Iterations 2
DILUPBiCG:  Solving for Uy, Initial residual = 5.4406326e-05, Final residual = 3.8528813e-09, No Iterations 2
DILUPBiCG:  Solving for Uz, Initial residual = 0.36584009, Final residual = 1.0688823e-05, No Iterations 2
DILUPBiCG:  Solving for h, Initial residual = 0.22607189, Final residual = 6.3759453e-05, No Iterations 1
GAMG:  Solving for p_rgh, Initial residual = 0.02791807, Final residual = 1.5909505e-05, No Iterations 3
time step continuity errors : sum local = 6.7695222e-05, global = 2.4540321e-05, cumulative = 1.5104181e-06
ExecutionTime = 0.54 s  ClockTime = 1 s
Inflow      : -2.4368473e-07 [kg/s]
Outflow     : -2.2321812e-07 [kg/s]
EnergyInflow  : -0.071999627 [W]
EnergyOutflow : -0.065952516 [W]
EnergyBalance : 0.0060471105 [W]
rho max/avg/min : 1.2016452 1.1905138 1.0577546
T   max/avg/min : 333.59558 296.61002 293.70001
P   max/avg/min : 101324.91 101316.16 101307.41
Prg max/avg/min : 101325 101324.92 101322.89
U   max/avg/min : 0.00023188084 -5.6761756e-05 -0.00057863841
Prg max-min : 2.1050899
 
sngrad(rho) :19.157621 1.476714 -0.00013323138
 
Iteration Number = 3

DILUPBiCG:  Solving for Ux, Initial residual = 0.3624245, Final residual = 3.5204079e-05, No Iterations 2
DILUPBiCG:  Solving for Uy, Initial residual = 6.9606806e-05, Final residual = 7.1992021e-09, No Iterations 2
DILUPBiCG:  Solving for Uz, Initial residual = 0.170318, Final residual = 2.1207664e-06, No Iterations 2
DILUPBiCG:  Solving for h, Initial residual = 0.15280847, Final residual = 4.6610116e-05, No Iterations 1
GAMG:  Solving for p_rgh, Initial residual = 0.012138607, Final residual = 1.1703257e-05, No Iterations 2
time step continuity errors : sum local = 8.3964949e-05, global = 1.3383789e-05, cumulative = 1.4894207e-05
ExecutionTime = 0.57 s  ClockTime = 1 s
Inflow      : -1.8877384e-07 [kg/s]
Outflow     : -1.7761177e-07 [kg/s]
EnergyInflow  : -0.055775534 [W]
EnergyOutflow : -0.052476942 [W]
EnergyBalance : 0.0032985916 [W]
rho max/avg/min : 1.2016452 1.1857605 1.028908
T   max/avg/min : 342.94828 297.93245 293.70002
P   max/avg/min : 101324.91 101316.16 101307.41
Prg max/avg/min : 101325 101324.88 101322.47
U   max/avg/min : 0.00043096125 4.7557216e-06 -0.00045435373
Prg max-min : 2.5278952
 
sngrad(rho) :4.1005465 0.64581268 -0.00013028258
 
Iteration Number = 4

DILUPBiCG:  Solving for Ux, Initial residual = 0.21843496, Final residual = 1.3060869e-05, No Iterations 2
DILUPBiCG:  Solving for Uy, Initial residual = 6.1165117e-05, Final residual = 5.4636159e-09, No Iterations 2
DILUPBiCG:  Solving for Uz, Initial residual = 0.25958013, Final residual = 2.7864927e-06, No Iterations 2
DILUPBiCG:  Solving for h, Initial residual = 0.11355535, Final residual = 4.4548517e-05, No Iterations 1
GAMG:  Solving for p_rgh, Initial residual = 0.0078139073, Final residual = 2.4112882e-06, No Iterations 3
time step continuity errors : sum local = 2.4236559e-05, global = -1.1023935e-05, cumulative = 3.8702718e-06
ExecutionTime = 0.6 s  ClockTime = 1 s
Inflow      : -1.3214807e-07 [kg/s]
Outflow     : -1.4134202e-07 [kg/s]
EnergyInflow  : -0.039044759 [W]
EnergyOutflow : -0.041759433 [W]
EnergyBalance : -0.002714674 [W]
rho max/avg/min : 1.2016452 1.1810643 1.0054677
T   max/avg/min : 350.94339 299.26756 293.70002
P   max/avg/min : 101324.91 101316.16 101307.41
Prg max/avg/min : 101325 101324.85 101322.13
U   max/avg/min : 0.00068531165 9.1007129e-05 -0.00034576385
Prg max-min : 2.870775
 
sngrad(rho) :3.413201 0.63595838 -0.00012769445
 
Iteration Number = 5

DILUPBiCG:  Solving for Ux, Initial residual = 0.2819122, Final residual = 1.195781e-05, No Iterations 2
DILUPBiCG:  Solving for Uy, Initial residual = 4.7120091e-05, Final residual = 3.2955854e-09, No Iterations 2
DILUPBiCG:  Solving for Uz, Initial residual = 0.19244864, Final residual = 5.8144935e-07, No Iterations 2
DILUPBiCG:  Solving for h, Initial residual = 0.090985025, Final residual = 4.6977348e-05, No Iterations 1
GAMG:  Solving for p_rgh, Initial residual = 0.0059449224, Final residual = 5.1719107e-06, No Iterations 3
time step continuity errors : sum local = 6.6664564e-05, global = 2.4049981e-05, cumulative = 2.7920253e-05
ExecutionTime = 0.63 s  ClockTime = 1 s
Inflow      : -1.3623766e-07 [kg/s]
Outflow     : -1.1617999e-07 [kg/s]
EnergyInflow  : -0.040253078 [W]
EnergyOutflow : -0.034322747 [W]
EnergyBalance : 0.0059303308 [W]
rho max/avg/min : 1.2016451 1.1764076 0.98552786
T   max/avg/min : 358.0439 300.61601 293.70002
P   max/avg/min : 101324.91 101316.16 101307.41
Prg max/avg/min : 101325 101324.81 101321.84
U   max/avg/min : 0.00099570925 0.00019839619 -0.00032668625
Prg max-min : 3.1627076
 
sngrad(rho) :2.9520407 0.62909112 -0.0001276391
 
Iteration Number = 6

DILUPBiCG:  Solving for Ux, Initial residual = 0.23025571, Final residual = 7.6658298e-06, No Iterations 2
DILUPBiCG:  Solving for Uy, Initial residual = 4.9106579e-05, Final residual = 3.7986817e-09, No Iterations 2
DILUPBiCG:  Solving for Uz, Initial residual = 0.18490336, Final residual = 5.6383303e-07, No Iterations 2
DILUPBiCG:  Solving for h, Initial residual = 0.076263273, Final residual = 5.1236061e-05, No Iterations 1
GAMG:  Solving for p_rgh, Initial residual = 0.004983651, Final residual = 1.7146396e-06, No Iterations 3
time step continuity errors : sum local = 2.6981173e-05, global = 8.0026154e-06, cumulative = 3.5922868e-05
ExecutionTime = 0.66 s  ClockTime = 1 s
Inflow      : -1.0135778e-07 [kg/s]
Outflow     : -9.4683599e-08 [kg/s]
EnergyInflow  : -0.029947391 [W]
EnergyOutflow : -0.027967465 [W]
EnergyBalance : 0.0019799264 [W]
rho max/avg/min : 1.2016451 1.1717826 0.96806078
T   max/avg/min : 364.50422 301.97739 293.70002
P   max/avg/min : 101324.91 101316.16 101307.41
Prg max/avg/min : 101325 101324.78 101321.58
U   max/avg/min : 0.0013614901 0.00035227072 -0.00026681993
Prg max-min : 3.4184908
 
sngrad(rho) :2.6406664 0.62514905 -0.00012835198
 
Iteration Number = 7

DILUPBiCG:  Solving for Ux, Initial residual = 0.16021961, Final residual = 4.7734763e-06, No Iterations 2
DILUPBiCG:  Solving for Uy, Initial residual = 5.9103511e-05, Final residual = 3.7434916e-09, No Iterations 2
DILUPBiCG:  Solving for Uz, Initial residual = 0.1843865, Final residual = 6.897463e-07, No Iterations 2
DILUPBiCG:  Solving for h, Initial residual = 0.065905693, Final residual = 5.7918938e-05, No Iterations 1
GAMG:  Solving for p_rgh, Initial residual = 0.0044454241, Final residual = 1.0772443e-06, No Iterations 4
time step continuity errors : sum local = 2.0010373e-05, global = 4.4715072e-06, cumulative = 4.0394375e-05
ExecutionTime = 0.69 s  ClockTime = 1 s
Inflow      : -8.3144743e-08 [kg/s]
Outflow     : -7.9415508e-08 [kg/s]
EnergyInflow  : -0.024566129 [W]
EnergyOutflow : -0.023449935 [W]
EnergyBalance : 0.0011161932 [W]
rho max/avg/min : 1.2016451 1.1671853 0.95245072
T   max/avg/min : 370.47821 303.35087 293.70002
P   max/avg/min : 101324.91 101316.16 101307.41
Prg max/avg/min : 101325 101324.75 101321.35
U   max/avg/min : 0.0017983691 0.00055531048 -0.00023597343
Prg max-min : 3.6469321
 
sngrad(rho) :2.3989967 0.62113587 -0.00012788404
 
Iteration Number = 8

DILUPBiCG:  Solving for Ux, Initial residual = 0.13585757, Final residual = 4.4943211e-06, No Iterations 2
DILUPBiCG:  Solving for Uy, Initial residual = 7.0293807e-05, Final residual = 2.537004e-09, No Iterations 2
DILUPBiCG:  Solving for Uz, Initial residual = 0.17193213, Final residual = 7.2324607e-05, No Iterations 1
DILUPBiCG:  Solving for h, Initial residual = 0.058191465, Final residual = 1.1672217e-06, No Iterations 2
GAMG:  Solving for p_rgh, Initial residual = 0.0041231289, Final residual = 1.1348163e-06, No Iterations 4
time step continuity errors : sum local = 2.4279954e-05, global = -9.4525277e-07, cumulative = 3.9449123e-05
ExecutionTime = 0.73 s  ClockTime = 1 s
Inflow      : -6.6064501e-08 [kg/s]
Outflow     : -6.6852841e-08 [kg/s]
EnergyInflow  : -0.019519563 [W]
EnergyOutflow : -0.01972815 [W]
EnergyBalance : -0.00020858713 [W]
rho max/avg/min : 1.2016451 1.1626066 0.93830445
T   max/avg/min : 376.0637 304.7373 293.70003
P   max/avg/min : 101324.91 101316.16 101307.41
Prg max/avg/min : 101325 101324.71 101321.15
U   max/avg/min : 0.0023223166 0.00081918248 -0.00023329498
Prg max-min : 3.8540002
 
sngrad(rho) :2.2110079 0.6184703 -0.00012471108
 
Iteration Number = 9

DILUPBiCG:  Solving for Ux, Initial residual = 0.11934189, Final residual = 4.1875185e-06, No Iterations 2
DILUPBiCG:  Solving for Uy, Initial residual = 0.00010305303, Final residual = 2.6687503e-09, No Iterations 2
DILUPBiCG:  Solving for Uz, Initial residual = 0.16471433, Final residual = 7.1712709e-05, No Iterations 1
DILUPBiCG:  Solving for h, Initial residual = 0.05224712, Final residual = 1.6728705e-06, No Iterations 2
GAMG:  Solving for p_rgh, Initial residual = 0.0039512912, Final residual = 1.2678277e-06, No Iterations 4
time step continuity errors : sum local = 3.0735742e-05, global = 9.0721337e-06, cumulative = 4.8521256e-05
ExecutionTime = 0.76 s  ClockTime = 1 s
Inflow      : -6.4890096e-08 [kg/s]
Outflow     : -5.7323942e-08 [kg/s]
EnergyInflow  : -0.019172571 [W]
EnergyOutflow : -0.016897521 [W]
EnergyBalance : 0.0022750497 [W]
rho max/avg/min : 1.201645 1.1580509 0.92533705
T   max/avg/min : 381.33374 306.13444 293.70004
P   max/avg/min : 101324.91 101316.16 101307.41
Prg max/avg/min : 101325 101324.68 101320.96
U   max/avg/min : 0.0029506521 0.0011602558 -0.00024937356
Prg max-min : 4.0437795
 
sngrad(rho) :2.0577088 0.6166402 -0.00011570372
 
Iteration Number = 10

DILUPBiCG:  Solving for Ux, Initial residual = 0.094391003, Final residual = 3.2174731e-06, No Iterations 2
DILUPBiCG:  Solving for Uy, Initial residual = 0.00013804824, Final residual = 2.1075987e-09, No Iterations 2
DILUPBiCG:  Solving for Uz, Initial residual = 0.15989528, Final residual = 9.0478313e-05, No Iterations 1
DILUPBiCG:  Solving for h, Initial residual = 0.047462774, Final residual = 2.5978915e-06, No Iterations 2
Radiation solver iter: 0
GAMG:  Solving for ILambda_0_0, Initial residual = 0.010756929, Final residual = 3.5074359e-18, No Iterations 1
GAMG:  Solving for ILambda_1_0, Initial residual = 0.014962441, Final residual = 1.3828924e-17, No Iterations 1
GAMG:  Solving for ILambda_2_0, Initial residual = 0.014962441, Final residual = 1.2290434e-17, No Iterations 1
GAMG:  Solving for ILambda_3_0, Initial residual = 0.010756929, Final residual = 3.4604106e-18, No Iterations 1
GAMG:  Solving for ILambda_4_0, Initial residual = 0.040595269, Final residual = 6.1652052e-06, No Iterations 1
GAMG:  Solving for ILambda_5_0, Initial residual = 0.038702828, Final residual = 1.8038168e-05, No Iterations 1
GAMG:  Solving for ILambda_6_0, Initial residual = 0.038702828, Final residual = 1.8038168e-05, No Iterations 1
GAMG:  Solving for ILambda_7_0, Initial residual = 0.040595269, Final residual = 6.1652052e-06, No Iterations 1
GAMG:  Solving for ILambda_8_0, Initial residual = 0.010762595, Final residual = 4.5700947e-08, No Iterations 1
GAMG:  Solving for ILambda_9_0, Initial residual = 0.014965601, Final residual = 6.0337612e-07, No Iterations 1
GAMG:  Solving for ILambda_10_0, Initial residual = 0.014965601, Final residual = 6.0337612e-07, No Iterations 1
GAMG:  Solving for ILambda_11_0, Initial residual = 0.010762595, Final residual = 4.5700947e-08, No Iterations 1
GAMG:  Solving for ILambda_12_0, Initial residual = 0.040595979, Final residual = 3.6084476e-17, No Iterations 1
GAMG:  Solving for ILambda_13_0, Initial residual = 0.038718191, Final residual = 9.4761714e-17, No Iterations 1
GAMG:  Solving for ILambda_14_0, Initial residual = 0.038718191, Final residual = 9.0094732e-17, No Iterations 1
GAMG:  Solving for ILambda_15_0, Initial residual = 0.040595979, Final residual = 3.8362512e-17, No Iterations 1
Radiation solver iter: 1
GAMG:  Solving for ILambda_0_0, Initial residual = 0.0091286982, Final residual = 5.3862253e-18, No Iterations 1
GAMG:  Solving for ILambda_1_0, Initial residual = 0.012358501, Final residual = 1.241981e-17, No Iterations 1
GAMG:  Solving for ILambda_2_0, Initial residual = 0.012358501, Final residual = 1.2415474e-17, No Iterations 1
GAMG:  Solving for ILambda_3_0, Initial residual = 0.0091286982, Final residual = 4.5738442e-18, No Iterations 1
GAMG:  Solving for ILambda_4_0, Initial residual = 0.036851636, Final residual = 5.4761468e-06, No Iterations 1
GAMG:  Solving for ILambda_5_0, Initial residual = 0.034506979, Final residual = 1.5466203e-05, No Iterations 1
GAMG:  Solving for ILambda_6_0, Initial residual = 0.034506979, Final residual = 1.5466203e-05, No Iterations 1
GAMG:  Solving for ILambda_7_0, Initial residual = 0.036851636, Final residual = 5.4761468e-06, No Iterations 1
GAMG:  Solving for ILambda_8_0, Initial residual = 0.009134236, Final residual = 3.7790752e-08, No Iterations 1
GAMG:  Solving for ILambda_9_0, Initial residual = 0.012361357, Final residual = 4.8437073e-07, No Iterations 1
GAMG:  Solving for ILambda_10_0, Initial residual = 0.012361357, Final residual = 4.8437073e-07, No Iterations 1
GAMG:  Solving for ILambda_11_0, Initial residual = 0.009134236, Final residual = 3.7790752e-08, No Iterations 1
GAMG:  Solving for ILambda_12_0, Initial residual = 0.036853504, Final residual = 3.1681046e-17, No Iterations 1
GAMG:  Solving for ILambda_13_0, Initial residual = 0.034527196, Final residual = 9.8467548e-17, No Iterations 1
GAMG:  Solving for ILambda_14_0, Initial residual = 0.034527196, Final residual = 1.0125005e-16, No Iterations 1
GAMG:  Solving for ILambda_15_0, Initial residual = 0.036853504, Final residual = 3.5372508e-17, No Iterations 1
Radiation solver iter: 2
GAMG:  Solving for ILambda_0_0, Initial residual = 0.0072151929, Final residual = 3.0566064e-18, No Iterations 1
GAMG:  Solving for ILambda_1_0, Initial residual = 0.01099966, Final residual = 1.1770973e-17, No Iterations 1
GAMG:  Solving for ILambda_2_0, Initial residual = 0.01099966, Final residual = 1.2576486e-17, No Iterations 1
GAMG:  Solving for ILambda_3_0, Initial residual = 0.0072151929, Final residual = 3.5762043e-18, No Iterations 1
GAMG:  Solving for ILambda_4_0, Initial residual = 0.033531354, Final residual = 4.7673925e-06, No Iterations 1
GAMG:  Solving for ILambda_5_0, Initial residual = 0.031025594, Final residual = 1.3379368e-05, No Iterations 1
GAMG:  Solving for ILambda_6_0, Initial residual = 0.031025594, Final residual = 1.3379368e-05, No Iterations 1
GAMG:  Solving for ILambda_7_0, Initial residual = 0.033531354, Final residual = 4.7673925e-06, No Iterations 1
GAMG:  Solving for ILambda_8_0, Initial residual = 0.0072198242, Final residual = 2.8368925e-08, No Iterations 1
GAMG:  Solving for ILambda_9_0, Initial residual = 0.011001927, Final residual = 4.4055995e-07, No Iterations 1
GAMG:  Solving for ILambda_10_0, Initial residual = 0.011001927, Final residual = 4.4055995e-07, No Iterations 1
GAMG:  Solving for ILambda_11_0, Initial residual = 0.0072198242, Final residual = 2.8368925e-08, No Iterations 1
GAMG:  Solving for ILambda_12_0, Initial residual = 0.033531963, Final residual = 2.5915536e-17, No Iterations 1
GAMG:  Solving for ILambda_13_0, Initial residual = 0.031039807, Final residual = 9.8787339e-17, No Iterations 1
GAMG:  Solving for ILambda_14_0, Initial residual = 0.031039807, Final residual = 1.0305692e-16, No Iterations 1
GAMG:  Solving for ILambda_15_0, Initial residual = 0.033531963, Final residual = 2.9838111e-17, No Iterations 1
Radiation solver iter: 3
GAMG:  Solving for ILambda_0_0, Initial residual = 0.0062445135, Final residual = 3.804698e-18, No Iterations 1
GAMG:  Solving for ILambda_1_0, Initial residual = 0.01045655, Final residual = 1.2335317e-17, No Iterations 1
GAMG:  Solving for ILambda_2_0, Initial residual = 0.01045655, Final residual = 1.1844741e-17, No Iterations 1
GAMG:  Solving for ILambda_3_0, Initial residual = 0.0062445135, Final residual = 3.5317252e-18, No Iterations 1
GAMG:  Solving for ILambda_4_0, Initial residual = 0.031234334, Final residual = 4.1017283e-06, No Iterations 1
GAMG:  Solving for ILambda_5_0, Initial residual = 0.02771301, Final residual = 1.0040891e-05, No Iterations 1
GAMG:  Solving for ILambda_6_0, Initial residual = 0.02771301, Final residual = 1.0040891e-05, No Iterations 1
GAMG:  Solving for ILambda_7_0, Initial residual = 0.031234334, Final residual = 4.1017283e-06, No Iterations 1
GAMG:  Solving for ILambda_8_0, Initial residual = 0.0062482181, Final residual = 2.6565879e-08, No Iterations 1
GAMG:  Solving for ILambda_9_0, Initial residual = 0.010458339, Final residual = 4.1134084e-07, No Iterations 1
GAMG:  Solving for ILambda_10_0, Initial residual = 0.010458339, Final residual = 4.1134084e-07, No Iterations 1
GAMG:  Solving for ILambda_11_0, Initial residual = 0.0062482181, Final residual = 2.6565879e-08, No Iterations 1
GAMG:  Solving for ILambda_12_0, Initial residual = 0.03123407, Final residual = 2.9172582e-17, No Iterations 1
GAMG:  Solving for ILambda_13_0, Initial residual = 0.027728531, Final residual = 1.0734626e-16, No Iterations 1
GAMG:  Solving for ILambda_14_0, Initial residual = 0.027728531, Final residual = 1.0073142e-16, No Iterations 1
GAMG:  Solving for ILambda_15_0, Initial residual = 0.03123407, Final residual = 3.1597696e-17, No Iterations 1
Radiation solver iter: 4
GAMG:  Solving for ILambda_0_0, Initial residual = 0.0055219108, Final residual = 2.930094e-18, No Iterations 1
GAMG:  Solving for ILambda_1_0, Initial residual = 0.0098467108, Final residual = 1.230914e-17, No Iterations 1
GAMG:  Solving for ILambda_2_0, Initial residual = 0.0098467108, Final residual = 1.1722873e-17, No Iterations 1
GAMG:  Solving for ILambda_3_0, Initial residual = 0.0055219108, Final residual = 3.675224e-18, No Iterations 1
GAMG:  Solving for ILambda_4_0, Initial residual = 0.029106227, Final residual = 3.4320992e-06, No Iterations 1
GAMG:  Solving for ILambda_5_0, Initial residual = 0.025380031, Final residual = 7.0451352e-06, No Iterations 1
GAMG:  Solving for ILambda_6_0, Initial residual = 0.025380031, Final residual = 7.0451352e-06, No Iterations 1
GAMG:  Solving for ILambda_7_0, Initial residual = 0.029106227, Final residual = 3.4320992e-06, No Iterations 1
GAMG:  Solving for ILambda_8_0, Initial residual = 0.0055249236, Final residual = 2.4497594e-08, No Iterations 1
GAMG:  Solving for ILambda_9_0, Initial residual = 0.0098482781, Final residual = 4.0319827e-07, No Iterations 1
GAMG:  Solving for ILambda_10_0, Initial residual = 0.0098482781, Final residual = 4.0319827e-07, No Iterations 1
GAMG:  Solving for ILambda_11_0, Initial residual = 0.0055249236, Final residual = 2.4497594e-08, No Iterations 1
GAMG:  Solving for ILambda_12_0, Initial residual = 0.029104821, Final residual = 3.0874113e-17, No Iterations 1
GAMG:  Solving for ILambda_13_0, Initial residual = 0.025396792, Final residual = 1.1319529e-16, No Iterations 1
GAMG:  Solving for ILambda_14_0, Initial residual = 0.025396792, Final residual = 1.1433963e-16, No Iterations 1
GAMG:  Solving for ILambda_15_0, Initial residual = 0.029104821, Final residual = 2.9179662e-17, No Iterations 1
Radiation solver iter: 5
GAMG:  Solving for ILambda_0_0, Initial residual = 0.0049760182, Final residual = 4.137756e-18, No Iterations 1
GAMG:  Solving for ILambda_1_0, Initial residual = 0.0094808727, Final residual = 1.2730122e-17, No Iterations 1
GAMG:  Solving for ILambda_2_0, Initial residual = 0.0094808727, Final residual = 1.2234748e-17, No Iterations 1
GAMG:  Solving for ILambda_3_0, Initial residual = 0.0049760182, Final residual = 3.548985e-18, No Iterations 1
GAMG:  Solving for ILambda_4_0, Initial residual = 0.027307862, Final residual = 2.7978848e-06, No Iterations 1
GAMG:  Solving for ILambda_5_0, Initial residual = 0.023068396, Final residual = 5.5408795e-06, No Iterations 1
GAMG:  Solving for ILambda_6_0, Initial residual = 0.023068396, Final residual = 5.5408795e-06, No Iterations 1
GAMG:  Solving for ILambda_7_0, Initial residual = 0.027307862, Final residual = 2.7978848e-06, No Iterations 1
GAMG:  Solving for ILambda_8_0, Initial residual = 0.0049785771, Final residual = 2.2390704e-08, No Iterations 1
GAMG:  Solving for ILambda_9_0, Initial residual = 0.0094823144, Final residual = 4.0923698e-07, No Iterations 1
GAMG:  Solving for ILambda_10_0, Initial residual = 0.0094823144, Final residual = 4.0923698e-07, No Iterations 1
GAMG:  Solving for ILambda_11_0, Initial residual = 0.0049785771, Final residual = 2.2390704e-08, No Iterations 1
GAMG:  Solving for ILambda_12_0, Initial residual = 0.027306079, Final residual = 2.8602273e-17, No Iterations 1
GAMG:  Solving for ILambda_13_0, Initial residual = 0.02307752, Final residual = 1.190917e-16, No Iterations 1
GAMG:  Solving for ILambda_14_0, Initial residual = 0.02307752, Final residual = 1.075068e-16, No Iterations 1
GAMG:  Solving for ILambda_15_0, Initial residual = 0.027306079, Final residual = 2.9884283e-17, No Iterations 1
Radiation solver iter: 6
GAMG:  Solving for ILambda_0_0, Initial residual = 0.0045890871, Final residual = 4.2068758e-18, No Iterations 1
GAMG:  Solving for ILambda_1_0, Initial residual = 0.0092799814, Final residual = 1.1768016e-17, No Iterations 1
GAMG:  Solving for ILambda_2_0, Initial residual = 0.0092799814, Final residual = 1.2338794e-17, No Iterations 1
GAMG:  Solving for ILambda_3_0, Initial residual = 0.0045890871, Final residual = 3.5149804e-18, No Iterations 1
GAMG:  Solving for ILambda_4_0, Initial residual = 0.025808101, Final residual = 2.2294899e-06, No Iterations 1
GAMG:  Solving for ILambda_5_0, Initial residual = 0.02105318, Final residual = 4.5947659e-06, No Iterations 1
GAMG:  Solving for ILambda_6_0, Initial residual = 0.02105318, Final residual = 4.5947659e-06, No Iterations 1
GAMG:  Solving for ILambda_7_0, Initial residual = 0.025808101, Final residual = 2.2294899e-06, No Iterations 1
GAMG:  Solving for ILambda_8_0, Initial residual = 0.00459129, Final residual = 2.0698521e-08, No Iterations 1
GAMG:  Solving for ILambda_9_0, Initial residual = 0.0092813163, Final residual = 4.2475103e-07, No Iterations 1
GAMG:  Solving for ILambda_10_0, Initial residual = 0.0092813163, Final residual = 4.2475103e-07, No Iterations 1
GAMG:  Solving for ILambda_11_0, Initial residual = 0.00459129, Final residual = 2.0698521e-08, No Iterations 1
GAMG:  Solving for ILambda_12_0, Initial residual = 0.025805783, Final residual = 2.9917223e-17, No Iterations 1
GAMG:  Solving for ILambda_13_0, Initial residual = 0.021068376, Final residual = 1.1796064e-16, No Iterations 1
GAMG:  Solving for ILambda_14_0, Initial residual = 0.021068376, Final residual = 1.1214781e-16, No Iterations 1
GAMG:  Solving for ILambda_15_0, Initial residual = 0.025805783, Final residual = 3.1827368e-17, No Iterations 1
Radiation solver iter: 7
GAMG:  Solving for ILambda_0_0, Initial residual = 0.0042699531, Final residual = 3.9922883e-18, No Iterations 1
GAMG:  Solving for ILambda_1_0, Initial residual = 0.0092181433, Final residual = 1.2791386e-17, No Iterations 1
GAMG:  Solving for ILambda_2_0, Initial residual = 0.0092181433, Final residual = 1.2354141e-17, No Iterations 1
GAMG:  Solving for ILambda_3_0, Initial residual = 0.0042699531, Final residual = 3.7696681e-18, No Iterations 1
GAMG:  Solving for ILambda_4_0, Initial residual = 0.024603002, Final residual = 1.7971453e-06, No Iterations 1
GAMG:  Solving for ILambda_5_0, Initial residual = 0.019446662, Final residual = 3.578723e-06, No Iterations 1
GAMG:  Solving for ILambda_6_0, Initial residual = 0.019446662, Final residual = 3.578723e-06, No Iterations 1
GAMG:  Solving for ILambda_7_0, Initial residual = 0.024603002, Final residual = 1.7971453e-06, No Iterations 1
GAMG:  Solving for ILambda_8_0, Initial residual = 0.004271849, Final residual = 1.9078331e-08, No Iterations 1
GAMG:  Solving for ILambda_9_0, Initial residual = 0.0092194196, Final residual = 4.517077e-07, No Iterations 1
GAMG:  Solving for ILambda_10_0, Initial residual = 0.0092194196, Final residual = 4.517077e-07, No Iterations 1
GAMG:  Solving for ILambda_11_0, Initial residual = 0.004271849, Final residual = 1.9078331e-08, No Iterations 1
GAMG:  Solving for ILambda_12_0, Initial residual = 0.024601905, Final residual = 4.1574654e-17, No Iterations 1
GAMG:  Solving for ILambda_13_0, Initial residual = 0.01945769, Final residual = 1.180449e-16, No Iterations 1
GAMG:  Solving for ILambda_14_0, Initial residual = 0.01945769, Final residual = 1.2555175e-16, No Iterations 1
GAMG:  Solving for ILambda_15_0, Initial residual = 0.024601905, Final residual = 3.8270092e-17, No Iterations 1
Radiation solver iter: 8
GAMG:  Solving for ILambda_0_0, Initial residual = 0.0039730536, Final residual = 3.9353298e-18, No Iterations 1
GAMG:  Solving for ILambda_1_0, Initial residual = 0.0092430671, Final residual = 1.3216493e-17, No Iterations 1
GAMG:  Solving for ILambda_2_0, Initial residual = 0.0092430671, Final residual = 1.2918383e-17, No Iterations 1
GAMG:  Solving for ILambda_3_0, Initial residual = 0.0039730536, Final residual = 4.2757327e-18, No Iterations 1
GAMG:  Solving for ILambda_4_0, Initial residual = 0.023485676, Final residual = 1.5583536e-06, No Iterations 1
GAMG:  Solving for ILambda_5_0, Initial residual = 0.017962495, Final residual = 2.8892633e-06, No Iterations 1
GAMG:  Solving for ILambda_6_0, Initial residual = 0.017962495, Final residual = 2.8892633e-06, No Iterations 1
GAMG:  Solving for ILambda_7_0, Initial residual = 0.023485676, Final residual = 1.5583536e-06, No Iterations 1
GAMG:  Solving for ILambda_8_0, Initial residual = 0.0039747469, Final residual = 1.7809329e-08, No Iterations 1
GAMG:  Solving for ILambda_9_0, Initial residual = 0.0092443094, Final residual = 4.9026014e-07, No Iterations 1
GAMG:  Solving for ILambda_10_0, Initial residual = 0.0092443094, Final residual = 4.9026014e-07, No Iterations 1
GAMG:  Solving for ILambda_11_0, Initial residual = 0.0039747469, Final residual = 1.7809329e-08, No Iterations 1
GAMG:  Solving for ILambda_12_0, Initial residual = 0.023484117, Final residual = 3.5638245e-17, No Iterations 1
GAMG:  Solving for ILambda_13_0, Initial residual = 0.017970922, Final residual = 1.2963683e-16, No Iterations 1
GAMG:  Solving for ILambda_14_0, Initial residual = 0.017970922, Final residual = 1.153588e-16, No Iterations 1
GAMG:  Solving for ILambda_15_0, Initial residual = 0.023484117, Final residual = 3.6986667e-17, No Iterations 1
Radiation solver iter: 9
GAMG:  Solving for ILambda_0_0, Initial residual = 0.0037083431, Final residual = 4.6819449e-18, No Iterations 1
GAMG:  Solving for ILambda_1_0, Initial residual = 0.0093529249, Final residual = 1.4319997e-17, No Iterations 1
GAMG:  Solving for ILambda_2_0, Initial residual = 0.0093529249, Final residual = 1.4421186e-17, No Iterations 1
GAMG:  Solving for ILambda_3_0, Initial residual = 0.0037083431, Final residual = 3.6703164e-18, No Iterations 1
GAMG:  Solving for ILambda_4_0, Initial residual = 0.022268701, Final residual = 1.4788414e-06, No Iterations 1
GAMG:  Solving for ILambda_5_0, Initial residual = 0.016613806, Final residual = 2.1924798e-06, No Iterations 1
GAMG:  Solving for ILambda_6_0, Initial residual = 0.016613806, Final residual = 2.1924798e-06, No Iterations 1
GAMG:  Solving for ILambda_7_0, Initial residual = 0.022268701, Final residual = 1.4788414e-06, No Iterations 1
GAMG:  Solving for ILambda_8_0, Initial residual = 0.0037098489, Final residual = 1.6734922e-08, No Iterations 1
GAMG:  Solving for ILambda_9_0, Initial residual = 0.0093540939, Final residual = 5.3993062e-07, No Iterations 1
GAMG:  Solving for ILambda_10_0, Initial residual = 0.0093540939, Final residual = 5.3993062e-07, No Iterations 1
GAMG:  Solving for ILambda_11_0, Initial residual = 0.0037098489, Final residual = 1.6734922e-08, No Iterations 1
GAMG:  Solving for ILambda_12_0, Initial residual = 0.022267145, Final residual = 3.1893077e-17, No Iterations 1
GAMG:  Solving for ILambda_13_0, Initial residual = 0.016619252, Final residual = 1.2791681e-16, No Iterations 1
GAMG:  Solving for ILambda_14_0, Initial residual = 0.016619252, Final residual = 1.2898241e-16, No Iterations 1
GAMG:  Solving for ILambda_15_0, Initial residual = 0.022267145, Final residual = 3.2167212e-17, No Iterations 1
GAMG:  Solving for p_rgh, Initial residual = 0.0038839508, Final residual = 1.0433452e-06, No Iterations 4
time step continuity errors : sum local = 2.8253742e-05, global = 4.6511848e-06, cumulative = 5.3172441e-05
ExecutionTime = 1.18 s  ClockTime = 1 s
Inflow      : -5.2983751e-08 [kg/s]
Outflow     : -4.9104666e-08 [kg/s]
EnergyInflow  : -0.015654696 [W]
EnergyOutflow : -0.014446372 [W]
EnergyBalance : 0.0012083235 [W]
rho max/avg/min : 1.2016449 1.1535175 0.91334757
T   max/avg/min : 386.3395 307.54148 293.70008
P   max/avg/min : 101324.91 101316.16 101307.41
Prg max/avg/min : 101325 101324.65 101320.78
U   max/avg/min : 0.0037056271 0.0015921998 -0.0002888833
Prg max-min : 4.2191869
 
sngrad(rho) :1.9307412 0.61488029 -9.6650422e-05
 
Iteration Number = 11

DILUPBiCG:  Solving for Ux, Initial residual = 0.093373703, Final residual = 3.3654351e-06, No Iterations 2
DILUPBiCG:  Solving for Uy, Initial residual = 0.00021295431, Final residual = 3.6402353e-09, No Iterations 2
DILUPBiCG:  Solving for Uz, Initial residual = 0.15646894, Final residual = 0.00011493605, No Iterations 1
DILUPBiCG:  Solving for h, Initial residual = 0.05018976, Final residual = 4.0105771e-06, No Iterations 2
GAMG:  Solving for p_rgh, Initial residual = 0.0045513278, Final residual = 2.3837791e-06, No Iterations 4
time step continuity errors : sum local = 7.1292922e-05, global = 2.536864e-05, cumulative = 7.8541081e-05
ExecutionTime = 1.22 s  ClockTime = 1 s
Inflow      : -6.4093131e-08 [kg/s]
Outflow     : -4.2935701e-08 [kg/s]
EnergyInflow  : -0.018937097 [W]
EnergyOutflow : -0.012590388 [W]
EnergyBalance : 0.006346709 [W]
rho max/avg/min : 1.2016446 1.1497176 0.91246971
T   max/avg/min : 386.71118 308.67827 293.70015
P   max/avg/min : 101324.91 101316.16 101307.41
Prg max/avg/min : 101325 101324.62 101320.77
U   max/avg/min : 0.0046256761 0.0021292515 -0.00041744448
Prg max-min : 4.2318688
 
sngrad(rho) :1.7146246 0.52894991 -5.9935908e-05
 
Iteration Number = 12

DILUPBiCG:  Solving for Ux, Initial residual = 0.087381854, Final residual = 3.3194193e-06, No Iterations 2
DILUPBiCG:  Solving for Uy, Initial residual = 0.00032024621, Final residual = 5.2773892e-09, No Iterations 2
DILUPBiCG:  Solving for Uz, Initial residual = 0.15433623, Final residual = 1.3184922e-06, No Iterations 2
DILUPBiCG:  Solving for h, Initial residual = 0.032080234, Final residual = 5.6563039e-06, No Iterations 2
GAMG:  Solving for p_rgh, Initial residual = 0.0042637501, Final residual = 1.8707717e-06, No Iterations 4
time step continuity errors : sum local = 6.0377501e-05, global = 1.3123665e-05, cumulative = 9.1664746e-05
ExecutionTime = 1.24 s  ClockTime = 1 s
Inflow      : -4.9022187e-08 [kg/s]
Outflow     : -3.8077057e-08 [kg/s]
EnergyInflow  : -0.014484203 [W]
EnergyOutflow : -0.01110712 [W]
EnergyBalance : 0.0033770827 [W]
rho max/avg/min : 1.201644 1.1459276 0.90728038
T   max/avg/min : 388.92304 309.83184 293.70027
P   max/avg/min : 101324.91 101316.16 101307.41
Prg max/avg/min : 101325 101324.59 101320.69
U   max/avg/min : 0.0057279718 0.002790597 -0.00056946561
Prg max-min : 4.307629
 
sngrad(rho) :1.5577104 0.53097984 5.3959681e-06
 
Iteration Number = 13

DILUPBiCG:  Solving for Ux, Initial residual = 0.083466812, Final residual = 3.6134622e-06, No Iterations 2
DILUPBiCG:  Solving for Uy, Initial residual = 0.0004412219, Final residual = 6.9795058e-09, No Iterations 2
DILUPBiCG:  Solving for Uz, Initial residual = 0.15278248, Final residual = 1.5382865e-06, No Iterations 2
DILUPBiCG:  Solving for h, Initial residual = 0.030233026, Final residual = 7.5380052e-06, No Iterations 2
GAMG:  Solving for p_rgh, Initial residual = 0.0043496337, Final residual = 3.2115977e-06, No Iterations 4
time step continuity errors : sum local = 0.00011127249, global = 4.4988218e-05, cumulative = 0.00013665296
ExecutionTime = 1.28 s  ClockTime = 1 s
Inflow      : -7.2431006e-08 [kg/s]
Outflow     : -3.4910859e-08 [kg/s]
EnergyInflow  : -0.021400624 [W]
EnergyOutflow : -0.010103186 [W]
EnergyBalance : 0.011297439 [W]
rho max/avg/min : 1.2016431 1.1421669 0.90120365
T   max/avg/min : 391.54551 310.98979 293.70047
P   max/avg/min : 101324.91 101316.16 101307.41
Prg max/avg/min : 101325 101324.56 101320.6
U   max/avg/min : 0.00705954 0.0035889535 -0.00088385635
Prg max-min : 4.3962959
 
sngrad(rho) :1.4403553 0.53206791 0.00011605058
 
Iteration Number = 14

DILUPBiCG:  Solving for Ux, Initial residual = 0.084667214, Final residual = 4.1033525e-06, No Iterations 2
DILUPBiCG:  Solving for Uy, Initial residual = 0.00065547866, Final residual = 1.3647717e-08, No Iterations 2
DILUPBiCG:  Solving for Uz, Initial residual = 0.1497377, Final residual = 2.1748017e-06, No Iterations 2
DILUPBiCG:  Solving for h, Initial residual = 0.028774214, Final residual = 1.1196828e-05, No Iterations 2
GAMG:  Solving for p_rgh, Initial residual = 0.0045471101, Final residual = 2.5999669e-06, No Iterations 4
time step continuity errors : sum local = 9.6107962e-05, global = 2.162615e-05, cumulative = 0.00015827911
ExecutionTime = 1.31 s  ClockTime = 1 s
Inflow      : -5.0067497e-08 [kg/s]
Outflow     : -3.2031301e-08 [kg/s]
EnergyInflow  : -0.014793053 [W]
EnergyOutflow : -0.0091544243 [W]
EnergyBalance : 0.0056386285 [W]
rho max/avg/min : 1.2016414 1.1384347 0.8949052
T   max/avg/min : 394.30126 312.15044 293.7008
P   max/avg/min : 101324.91 101316.16 101307.41
Prg max/avg/min : 101325 101324.54 101320.51
U   max/avg/min : 0.0086443978 0.0045474058 -0.0012278404
Prg max-min : 4.4881398
 
sngrad(rho) :1.3489683 0.53504098 0.00029891118
 
Iteration Number = 15

DILUPBiCG:  Solving for Ux, Initial residual = 0.080045655, Final residual = 4.589114e-06, No Iterations 2
DILUPBiCG:  Solving for Uy, Initial residual = 0.00076201289, Final residual = 2.2088211e-08, No Iterations 2
DILUPBiCG:  Solving for Uz, Initial residual = 0.14590816, Final residual = 2.2111643e-06, No Iterations 2
DILUPBiCG:  Solving for h, Initial residual = 0.027446177, Final residual = 1.4983555e-05, No Iterations 2
GAMG:  Solving for p_rgh, Initial residual = 0.0048224441, Final residual = 4.0350087e-06, No Iterations 4
time step continuity errors : sum local = 0.00015827081, global = 6.8942209e-05, cumulative = 0.00022722132
ExecutionTime = 1.35 s  ClockTime = 1 s
Inflow      : -8.6785078e-08 [kg/s]
Outflow     : -2.9287316e-08 [kg/s]
EnergyInflow  : -0.02564171 [W]
EnergyOutflow : -0.0082032983 [W]
EnergyBalance : 0.017438412 [W]
rho max/avg/min : 1.2016389 1.1347304 0.88859804
T   max/avg/min : 397.09996 313.31298 293.70136
P   max/avg/min : 101324.91 101316.16 101307.41
Prg max/avg/min : 101325 101324.51 101320.42
U   max/avg/min : 0.010539415 0.0056727789 -0.0018047767
Prg max-min : 4.5800349
 
sngrad(rho) :1.2796716 0.54028265 0.00060115406
 
Iteration Number = 16

DILUPBiCG:  Solving for Ux, Initial residual = 0.084310902, Final residual = 5.883822e-06, No Iterations 2
DILUPBiCG:  Solving for Uy, Initial residual = 0.0011019519, Final residual = 4.0716057e-08, No Iterations 2
DILUPBiCG:  Solving for Uz, Initial residual = 0.14069984, Final residual = 2.9378044e-06, No Iterations 2
DILUPBiCG:  Solving for h, Initial residual = 0.026221592, Final residual = 2.1266226e-05, No Iterations 2
GAMG:  Solving for p_rgh, Initial residual = 0.0051650335, Final residual = 3.5303238e-06, No Iterations 4
time step continuity errors : sum local = 0.00014615015, global = 3.0912956e-05, cumulative = 0.00025813428
ExecutionTime = 1.37 s  ClockTime = 2 s
Inflow      : -4.9156911e-08 [kg/s]
Outflow     : -2.3375524e-08 [kg/s]
EnergyInflow  : -0.014524009 [W]
EnergyOutflow : -0.006254611 [W]
EnergyBalance : 0.0082693981 [W]
rho max/avg/min : 1.2016342 1.1310531 0.88237107
T   max/avg/min : 399.90233 314.47701 293.70232
P   max/avg/min : 101324.91 101316.16 101307.41
Prg max/avg/min : 101325 101324.48 101320.33
U   max/avg/min : 0.012773903 0.0069921309 -0.0023984703
Prg max-min : 4.6707196
 
sngrad(rho) :1.222496 0.54799104 0.0011235511
 
Iteration Number = 17

DILUPBiCG:  Solving for Ux, Initial residual = 0.082098265, Final residual = 7.2488331e-06, No Iterations 2
DILUPBiCG:  Solving for Uy, Initial residual = 0.001424653, Final residual = 6.5304912e-08, No Iterations 2
DILUPBiCG:  Solving for Uz, Initial residual = 0.13376559, Final residual = 2.7757088e-06, No Iterations 2
DILUPBiCG:  Solving for h, Initial residual = 0.02507206, Final residual = 3.2575086e-06, No Iterations 4
GAMG:  Solving for p_rgh, Initial residual = 0.0055933748, Final residual = 5.2311316e-06, No Iterations 4
time step continuity errors : sum local = 0.00022757667, global = 9.8262225e-05, cumulative = 0.0003563965
ExecutionTime = 1.41 s  ClockTime = 2 s
Inflow      : -9.242408e-08 [kg/s]
Outflow     : -1.0473444e-08 [kg/s]
EnergyInflow  : -0.027307822 [W]
EnergyOutflow : -0.0021505241 [W]
EnergyBalance : 0.025157298 [W]
rho max/avg/min : 1.2016256 1.1273983 0.87626338
T   max/avg/min : 402.68971 315.64314 293.70445
P   max/avg/min : 101324.91 101316.16 101307.41
Prg max/avg/min : 101325 101324.46 101320.24
U   max/avg/min : 0.015422923 0.008501052 -0.0032895198
Prg max-min : 4.7598636
 
sngrad(rho) :1.1753223 0.55826227 0.0022868408
 
Iteration Number = 18

DILUPBiCG:  Solving for Ux, Initial residual = 0.086614721, Final residual = 9.5443868e-06, No Iterations 2
DILUPBiCG:  Solving for Uy, Initial residual = 0.0019055651, Final residual = 1.293763e-07, No Iterations 2
DILUPBiCG:  Solving for Uz, Initial residual = 0.12633384, Final residual = 3.3826426e-06, No Iterations 2
DILUPBiCG:  Solving for h, Initial residual = 0.023988188, Final residual = 6.4899575e-06, No Iterations 4
GAMG:  Solving for p_rgh, Initial residual = 0.0060472206, Final residual = 4.9138275e-06, No Iterations 4
time step continuity errors : sum local = 0.00022356419, global = 4.1413664e-05, cumulative = 0.00039781017
ExecutionTime = 1.44 s  ClockTime = 2 s
Inflow      : -1.7619137e-08 [kg/s]
Outflow     : 1.6919834e-08 [kg/s]
EnergyInflow  : -0.0052057889 [W]
EnergyOutflow : 0.0063654085 [W]
EnergyBalance : 0.011571197 [W]
rho max/avg/min : 1.2016107 1.1237719 0.87029459
T   max/avg/min : 405.45151 316.80958 293.70802
P   max/avg/min : 101324.91 101316.16 101307.41
Prg max/avg/min : 101325 101324.43 101320.15
U   max/avg/min : 0.018512806 0.010235675 -0.0041671948
Prg max-min : 4.8468685
 
sngrad(rho) :1.1369883 0.57055709 0.0042368788
 
Iteration Number = 19

DILUPBiCG:  Solving for Ux, Initial residual = 0.087079795, Final residual = 1.1872728e-05, No Iterations 2
DILUPBiCG:  Solving for Uy, Initial residual = 0.0022470785, Final residual = 1.9747937e-07, No Iterations 2
DILUPBiCG:  Solving for Uz, Initial residual = 0.11754645, Final residual = 3.3416841e-06, No Iterations 2
DILUPBiCG:  Solving for h, Initial residual = 0.022970514, Final residual = 2.3490798e-06, No Iterations 5
GAMG:  Solving for p_rgh, Initial residual = 0.0068442723, Final residual = 6.4898012e-06, No Iterations 4
time step continuity errors : sum local = 0.00030622314, global = 0.0001239237, cumulative = 0.00052173387
ExecutionTime = 1.47 s  ClockTime = 2 s
Inflow      : -3.5721885e-08 [kg/s]
Outflow     : 6.7630406e-08 [kg/s]
EnergyInflow  : -0.010554467 [W]
EnergyOutflow : 0.021956325 [W]
EnergyBalance : 0.032510792 [W]
rho max/avg/min : 1.2016079 1.1201757 0.86447049
T   max/avg/min : 408.18311 317.97549 293.70912
P   max/avg/min : 101324.91 101316.16 101307.41
Prg max/avg/min : 101325 101324.4 101320.07
U   max/avg/min : 0.022092418 0.012167752 -0.0053592884
Prg max-min : 4.9315623
 
sngrad(rho) :1.1030475 0.58180193 0.007674171
 
Iteration Number = 20

DILUPBiCG:  Solving for Ux, Initial residual = 0.089512233, Final residual = 1.3565984e-05, No Iterations 2
DILUPBiCG:  Solving for Uy, Initial residual = 0.0028330238, Final residual = 3.4308381e-07, No Iterations 2
DILUPBiCG:  Solving for Uz, Initial residual = 0.10909048, Final residual = 3.7814334e-06, No Iterations 2
DILUPBiCG:  Solving for h, Initial residual = 0.021991586, Final residual = 6.4760211e-06, No Iterations 4
Radiation solver iter: 0
GAMG:  Solving for ILambda_0_0, Initial residual = 0.0039505938, Final residual = 4.2646792e-18, No Iterations 1
GAMG:  Solving for ILambda_1_0, Initial residual = 0.010322968, Final residual = 1.4544739e-17, No Iterations 1
GAMG:  Solving for ILambda_2_0, Initial residual = 0.010322968, Final residual = 1.4620919e-17, No Iterations 1
GAMG:  Solving for ILambda_3_0, Initial residual = 0.0039505938, Final residual = 4.2060103e-18, No Iterations 1
GAMG:  Solving for ILambda_4_0, Initial residual = 0.020923528, Final residual = 1.3808509e-06, No Iterations 1
GAMG:  Solving for ILambda_5_0, Initial residual = 0.015538294, Final residual = 1.7756091e-06, No Iterations 1
GAMG:  Solving for ILambda_6_0, Initial residual = 0.015538294, Final residual = 1.7756091e-06, No Iterations 1
GAMG:  Solving for ILambda_7_0, Initial residual = 0.020923528, Final residual = 1.3808509e-06, No Iterations 1
GAMG:  Solving for ILambda_8_0, Initial residual = 0.0039626747, Final residual = 1.6194128e-08, No Iterations 1
GAMG:  Solving for ILambda_9_0, Initial residual = 0.01033131, Final residual = 6.057402e-07, No Iterations 1
GAMG:  Solving for ILambda_10_0, Initial residual = 0.01033131, Final residual = 6.057402e-07, No Iterations 1
GAMG:  Solving for ILambda_11_0, Initial residual = 0.0039626747, Final residual = 1.6194128e-08, No Iterations 1
GAMG:  Solving for ILambda_12_0, Initial residual = 0.020934124, Final residual = 2.987333e-17, No Iterations 1
GAMG:  Solving for ILambda_13_0, Initial residual = 0.015556713, Final residual = 1.3925853e-16, No Iterations 1
GAMG:  Solving for ILambda_14_0, Initial residual = 0.015556713, Final residual = 1.3735265e-16, No Iterations 1
GAMG:  Solving for ILambda_15_0, Initial residual = 0.020934124, Final residual = 3.1453428e-17, No Iterations 1
Radiation solver iter: 1
GAMG:  Solving for ILambda_0_0, Initial residual = 0.0037679237, Final residual = 3.6934684e-18, No Iterations 1
GAMG:  Solving for ILambda_1_0, Initial residual = 0.010232083, Final residual = 1.5484251e-17, No Iterations 1
GAMG:  Solving for ILambda_2_0, Initial residual = 0.010232083, Final residual = 1.5774431e-17, No Iterations 1
GAMG:  Solving for ILambda_3_0, Initial residual = 0.0037679237, Final residual = 4.4424886e-18, No Iterations 1
GAMG:  Solving for ILambda_4_0, Initial residual = 0.019756345, Final residual = 1.2944591e-06, No Iterations 1
GAMG:  Solving for ILambda_5_0, Initial residual = 0.014549702, Final residual = 1.5561861e-06, No Iterations 1
GAMG:  Solving for ILambda_6_0, Initial residual = 0.014549702, Final residual = 1.5561861e-06, No Iterations 1
GAMG:  Solving for ILambda_7_0, Initial residual = 0.019756345, Final residual = 1.2944591e-06, No Iterations 1
GAMG:  Solving for ILambda_8_0, Initial residual = 0.0037803562, Final residual = 1.5365754e-08, No Iterations 1
GAMG:  Solving for ILambda_9_0, Initial residual = 0.010240461, Final residual = 6.6031577e-07, No Iterations 1
GAMG:  Solving for ILambda_10_0, Initial residual = 0.010240461, Final residual = 6.6031577e-07, No Iterations 1
GAMG:  Solving for ILambda_11_0, Initial residual = 0.0037803562, Final residual = 1.5365754e-08, No Iterations 1
GAMG:  Solving for ILambda_12_0, Initial residual = 0.019768446, Final residual = 3.4163759e-17, No Iterations 1
GAMG:  Solving for ILambda_13_0, Initial residual = 0.014571232, Final residual = 1.4370551e-16, No Iterations 1
GAMG:  Solving for ILambda_14_0, Initial residual = 0.014571232, Final residual = 1.4249472e-16, No Iterations 1
GAMG:  Solving for ILambda_15_0, Initial residual = 0.019768446, Final residual = 3.266778e-17, No Iterations 1
Radiation solver iter: 2
GAMG:  Solving for ILambda_0_0, Initial residual = 0.0034226172, Final residual = 4.0112145e-18, No Iterations 1
GAMG:  Solving for ILambda_1_0, Initial residual = 0.010339472, Final residual = 1.6045448e-17, No Iterations 1
GAMG:  Solving for ILambda_2_0, Initial residual = 0.010339472, Final residual = 1.6061046e-17, No Iterations 1
GAMG:  Solving for ILambda_3_0, Initial residual = 0.0034226172, Final residual = 4.7392215e-18, No Iterations 1
GAMG:  Solving for ILambda_4_0, Initial residual = 0.01879489, Final residual = 1.2136519e-06, No Iterations 1
GAMG:  Solving for ILambda_5_0, Initial residual = 0.013623788, Final residual = 1.237704e-06, No Iterations 1
GAMG:  Solving for ILambda_6_0, Initial residual = 0.013623788, Final residual = 1.237704e-06, No Iterations 1
GAMG:  Solving for ILambda_7_0, Initial residual = 0.01879489, Final residual = 1.2136519e-06, No Iterations 1
GAMG:  Solving for ILambda_8_0, Initial residual = 0.0034341846, Final residual = 1.4161586e-08, No Iterations 1
GAMG:  Solving for ILambda_9_0, Initial residual = 0.010347468, Final residual = 7.2666646e-07, No Iterations 1
GAMG:  Solving for ILambda_10_0, Initial residual = 0.010347468, Final residual = 7.2666646e-07, No Iterations 1
GAMG:  Solving for ILambda_11_0, Initial residual = 0.0034341846, Final residual = 1.4161586e-08, No Iterations 1
GAMG:  Solving for ILambda_12_0, Initial residual = 0.018804144, Final residual = 3.1079279e-17, No Iterations 1
GAMG:  Solving for ILambda_13_0, Initial residual = 0.013640157, Final residual = 1.5369223e-16, No Iterations 1
GAMG:  Solving for ILambda_14_0, Initial residual = 0.013640157, Final residual = 1.4175201e-16, No Iterations 1
GAMG:  Solving for ILambda_15_0, Initial residual = 0.018804144, Final residual = 2.9850507e-17, No Iterations 1
Radiation solver iter: 3
GAMG:  Solving for ILambda_0_0, Initial residual = 0.0032319434, Final residual = 4.2568284e-18, No Iterations 1
GAMG:  Solving for ILambda_1_0, Initial residual = 0.010594695, Final residual = 1.6186256e-17, No Iterations 1
GAMG:  Solving for ILambda_2_0, Initial residual = 0.010594695, Final residual = 1.6340524e-17, No Iterations 1
GAMG:  Solving for ILambda_3_0, Initial residual = 0.0032319434, Final residual = 4.0957796e-18, No Iterations 1
GAMG:  Solving for ILambda_4_0, Initial residual = 0.017898253, Final residual = 1.1280371e-06, No Iterations 1
GAMG:  Solving for ILambda_5_0, Initial residual = 0.012824531, Final residual = 9.8509613e-07, No Iterations 1
GAMG:  Solving for ILambda_6_0, Initial residual = 0.012824531, Final residual = 9.8509613e-07, No Iterations 1
GAMG:  Solving for ILambda_7_0, Initial residual = 0.017898253, Final residual = 1.1280371e-06, No Iterations 1
GAMG:  Solving for ILambda_8_0, Initial residual = 0.0032426595, Final residual = 1.3557655e-08, No Iterations 1
GAMG:  Solving for ILambda_9_0, Initial residual = 0.010602453, Final residual = 8.0418327e-07, No Iterations 1
GAMG:  Solving for ILambda_10_0, Initial residual = 0.010602453, Final residual = 8.0418327e-07, No Iterations 1
GAMG:  Solving for ILambda_11_0, Initial residual = 0.0032426595, Final residual = 1.3557655e-08, No Iterations 1
GAMG:  Solving for ILambda_12_0, Initial residual = 0.017905712, Final residual = 3.1707341e-17, No Iterations 1
GAMG:  Solving for ILambda_13_0, Initial residual = 0.012843296, Final residual = 1.5773774e-16, No Iterations 1
GAMG:  Solving for ILambda_14_0, Initial residual = 0.012843296, Final residual = 1.5866361e-16, No Iterations 1
GAMG:  Solving for ILambda_15_0, Initial residual = 0.017905712, Final residual = 3.4636149e-17, No Iterations 1
Radiation solver iter: 4
GAMG:  Solving for ILambda_0_0, Initial residual = 0.0030659762, Final residual = 3.6759513e-18, No Iterations 1
GAMG:  Solving for ILambda_1_0, Initial residual = 0.010856929, Final residual = 1.6747792e-17, No Iterations 1
GAMG:  Solving for ILambda_2_0, Initial residual = 0.010856929, Final residual = 1.7536708e-17, No Iterations 1
GAMG:  Solving for ILambda_3_0, Initial residual = 0.0030659762, Final residual = 3.7074304e-18, No Iterations 1
GAMG:  Solving for ILambda_4_0, Initial residual = 0.017012495, Final residual = 1.0358403e-06, No Iterations 1
GAMG:  Solving for ILambda_5_0, Initial residual = 0.012168299, Final residual = 8.0958387e-07, No Iterations 1
GAMG:  Solving for ILambda_6_0, Initial residual = 0.012168299, Final residual = 8.0958387e-07, No Iterations 1
GAMG:  Solving for ILambda_7_0, Initial residual = 0.017012495, Final residual = 1.0358403e-06, No Iterations 1
GAMG:  Solving for ILambda_8_0, Initial residual = 0.0030760203, Final residual = 1.3023428e-08, No Iterations 1
GAMG:  Solving for ILambda_9_0, Initial residual = 0.010864592, Final residual = 8.9772401e-07, No Iterations 1
GAMG:  Solving for ILambda_10_0, Initial residual = 0.010864592, Final residual = 8.9772401e-07, No Iterations 1
GAMG:  Solving for ILambda_11_0, Initial residual = 0.0030760203, Final residual = 1.3023428e-08, No Iterations 1
GAMG:  Solving for ILambda_12_0, Initial residual = 0.017018725, Final residual = 3.762639e-17, No Iterations 1
GAMG:  Solving for ILambda_13_0, Initial residual = 0.012184685, Final residual = 1.6228743e-16, No Iterations 1
GAMG:  Solving for ILambda_14_0, Initial residual = 0.012184685, Final residual = 1.6439469e-16, No Iterations 1
GAMG:  Solving for ILambda_15_0, Initial residual = 0.017018725, Final residual = 3.9973362e-17, No Iterations 1
Radiation solver iter: 5
GAMG:  Solving for ILambda_0_0, Initial residual = 0.0029229159, Final residual = 4.7129971e-18, No Iterations 1
GAMG:  Solving for ILambda_1_0, Initial residual = 0.011195099, Final residual = 1.7632895e-17, No Iterations 1
GAMG:  Solving for ILambda_2_0, Initial residual = 0.011195099, Final residual = 1.7742492e-17, No Iterations 1
GAMG:  Solving for ILambda_3_0, Initial residual = 0.0029229159, Final residual = 3.5386481e-18, No Iterations 1
GAMG:  Solving for ILambda_4_0, Initial residual = 0.016308621, Final residual = 9.3786365e-07, No Iterations 1
GAMG:  Solving for ILambda_5_0, Initial residual = 0.011555233, Final residual = 6.3100297e-07, No Iterations 1
GAMG:  Solving for ILambda_6_0, Initial residual = 0.011555233, Final residual = 6.3100297e-07, No Iterations 1
GAMG:  Solving for ILambda_7_0, Initial residual = 0.016308621, Final residual = 9.3786365e-07, No Iterations 1
GAMG:  Solving for ILambda_8_0, Initial residual = 0.0029322852, Final residual = 1.2409559e-08, No Iterations 1
GAMG:  Solving for ILambda_9_0, Initial residual = 0.01120276, Final residual = 1.0129386e-06, No Iterations 1
GAMG:  Solving for ILambda_10_0, Initial residual = 0.01120276, Final residual = 1.0129386e-06, No Iterations 1
GAMG:  Solving for ILambda_11_0, Initial residual = 0.0029322852, Final residual = 1.2409559e-08, No Iterations 1
GAMG:  Solving for ILambda_12_0, Initial residual = 0.016315317, Final residual = 4.0304258e-17, No Iterations 1
GAMG:  Solving for ILambda_13_0, Initial residual = 0.011569596, Final residual = 1.6993567e-16, No Iterations 1
GAMG:  Solving for ILambda_14_0, Initial residual = 0.011569596, Final residual = 1.6646162e-16, No Iterations 1
GAMG:  Solving for ILambda_15_0, Initial residual = 0.016315317, Final residual = 3.9225283e-17, No Iterations 1
Radiation solver iter: 6
GAMG:  Solving for ILambda_0_0, Initial residual = 0.0028059718, Final residual = 2.8427748e-18, No Iterations 1
GAMG:  Solving for ILambda_1_0, Initial residual = 0.011609892, Final residual = 1.8339691e-17, No Iterations 1
GAMG:  Solving for ILambda_2_0, Initial residual = 0.011609892, Final residual = 1.7994085e-17, No Iterations 1
GAMG:  Solving for ILambda_3_0, Initial residual = 0.0028059718, Final residual = 3.1812321e-18, No Iterations 1
GAMG:  Solving for ILambda_4_0, Initial residual = 0.01577799, Final residual = 8.7851943e-07, No Iterations 1
GAMG:  Solving for ILambda_5_0, Initial residual = 0.011021134, Final residual = 5.0098974e-07, No Iterations 1
GAMG:  Solving for ILambda_6_0, Initial residual = 0.011021134, Final residual = 5.0098974e-07, No Iterations 1
GAMG:  Solving for ILambda_7_0, Initial residual = 0.01577799, Final residual = 8.7851943e-07, No Iterations 1
GAMG:  Solving for ILambda_8_0, Initial residual = 0.0028148348, Final residual = 1.1772567e-08, No Iterations 1
GAMG:  Solving for ILambda_9_0, Initial residual = 0.011617727, Final residual = 1.1544734e-06, No Iterations 1
GAMG:  Solving for ILambda_10_0, Initial residual = 0.011617727, Final residual = 1.1544734e-06, No Iterations 1
GAMG:  Solving for ILambda_11_0, Initial residual = 0.0028148348, Final residual = 1.1772567e-08, No Iterations 1
GAMG:  Solving for ILambda_12_0, Initial residual = 0.015783983, Final residual = 3.8887343e-17, No Iterations 1
GAMG:  Solving for ILambda_13_0, Initial residual = 0.011035713, Final residual = 1.7625608e-16, No Iterations 1
GAMG:  Solving for ILambda_14_0, Initial residual = 0.011035713, Final residual = 1.9130788e-16, No Iterations 1
GAMG:  Solving for ILambda_15_0, Initial residual = 0.015783983, Final residual = 3.4942375e-17, No Iterations 1
Radiation solver iter: 7
GAMG:  Solving for ILambda_0_0, Initial residual = 0.002702863, Final residual = 2.3553183e-18, No Iterations 1
GAMG:  Solving for ILambda_1_0, Initial residual = 0.012097624, Final residual = 1.97714e-17, No Iterations 1
GAMG:  Solving for ILambda_2_0, Initial residual = 0.012097624, Final residual = 2.0649138e-17, No Iterations 1
GAMG:  Solving for ILambda_3_0, Initial residual = 0.002702863, Final residual = 3.3278943e-18, No Iterations 1
GAMG:  Solving for ILambda_4_0, Initial residual = 0.015229078, Final residual = 8.2776147e-07, No Iterations 1
GAMG:  Solving for ILambda_5_0, Initial residual = 0.010572385, Final residual = 4.3053054e-07, No Iterations 1
GAMG:  Solving for ILambda_6_0, Initial residual = 0.010572385, Final residual = 4.3053054e-07, No Iterations 1
GAMG:  Solving for ILambda_7_0, Initial residual = 0.015229078, Final residual = 8.2776147e-07, No Iterations 1
GAMG:  Solving for ILambda_8_0, Initial residual = 0.0027112528, Final residual = 1.1180959e-08, No Iterations 1
GAMG:  Solving for ILambda_9_0, Initial residual = 0.012105554, Final residual = 1.3306618e-06, No Iterations 1
GAMG:  Solving for ILambda_10_0, Initial residual = 0.012105554, Final residual = 1.3306618e-06, No Iterations 1
GAMG:  Solving for ILambda_11_0, Initial residual = 0.0027112528, Final residual = 1.1180959e-08, No Iterations 1
GAMG:  Solving for ILambda_12_0, Initial residual = 0.015233822, Final residual = 3.5385691e-17, No Iterations 1
GAMG:  Solving for ILambda_13_0, Initial residual = 0.010588245, Final residual = 1.9051832e-16, No Iterations 1
GAMG:  Solving for ILambda_14_0, Initial residual = 0.010588245, Final residual = 1.9225301e-16, No Iterations 1
GAMG:  Solving for ILambda_15_0, Initial residual = 0.015233822, Final residual = 3.6678111e-17, No Iterations 1
Radiation solver iter: 8
GAMG:  Solving for ILambda_0_0, Initial residual = 0.0026039519, Final residual = 3.2213671e-18, No Iterations 1
GAMG:  Solving for ILambda_1_0, Initial residual = 0.01265432, Final residual = 2.1178878e-17, No Iterations 1
GAMG:  Solving for ILambda_2_0, Initial residual = 0.01265432, Final residual = 2.1466747e-17, No Iterations 1
GAMG:  Solving for ILambda_3_0, Initial residual = 0.0026039519, Final residual = 3.0927733e-18, No Iterations 1
GAMG:  Solving for ILambda_4_0, Initial residual = 0.014660726, Final residual = 7.6071875e-07, No Iterations 1
GAMG:  Solving for ILambda_5_0, Initial residual = 0.010198741, Final residual = 3.3525127e-07, No Iterations 1
GAMG:  Solving for ILambda_6_0, Initial residual = 0.010198741, Final residual = 3.3525127e-07, No Iterations 1
GAMG:  Solving for ILambda_7_0, Initial residual = 0.014660726, Final residual = 7.6071875e-07, No Iterations 1
GAMG:  Solving for ILambda_8_0, Initial residual = 0.0026117221, Final residual = 1.074656e-08, No Iterations 1
GAMG:  Solving for ILambda_9_0, Initial residual = 0.012662369, Final residual = 1.5233234e-06, No Iterations 1
GAMG:  Solving for ILambda_10_0, Initial residual = 0.012662369, Final residual = 1.5233234e-06, No Iterations 1
GAMG:  Solving for ILambda_11_0, Initial residual = 0.0026117221, Final residual = 1.074656e-08, No Iterations 1
GAMG:  Solving for ILambda_12_0, Initial residual = 0.014664842, Final residual = 3.3858714e-17, No Iterations 1
GAMG:  Solving for ILambda_13_0, Initial residual = 0.010214142, Final residual = 1.9262114e-16, No Iterations 1
GAMG:  Solving for ILambda_14_0, Initial residual = 0.010214142, Final residual = 2.0746434e-16, No Iterations 1
GAMG:  Solving for ILambda_15_0, Initial residual = 0.014664842, Final residual = 3.2305429e-17, No Iterations 1
Radiation solver iter: 9
GAMG:  Solving for ILambda_0_0, Initial residual = 0.0025137358, Final residual = 3.389722e-18, No Iterations 1
GAMG:  Solving for ILambda_1_0, Initial residual = 0.013287915, Final residual = 2.2715538e-17, No Iterations 1
GAMG:  Solving for ILambda_2_0, Initial residual = 0.013287915, Final residual = 2.3666523e-17, No Iterations 1
GAMG:  Solving for ILambda_3_0, Initial residual = 0.0025137358, Final residual = 3.2829618e-18, No Iterations 1
GAMG:  Solving for ILambda_4_0, Initial residual = 0.014077867, Final residual = 7.1207041e-07, No Iterations 1
GAMG:  Solving for ILambda_5_0, Initial residual = 0.0098863024, Final residual = 2.7987392e-07, No Iterations 1
GAMG:  Solving for ILambda_6_0, Initial residual = 0.0098863024, Final residual = 2.7987392e-07, No Iterations 1
GAMG:  Solving for ILambda_7_0, Initial residual = 0.014077867, Final residual = 7.1207041e-07, No Iterations 1
GAMG:  Solving for ILambda_8_0, Initial residual = 0.002521288, Final residual = 1.0370692e-08, No Iterations 1
[...]
GAMG:  Solving for ILambda_7_0, Initial residual = 9.777097e-05, Final residual = 9.777097e-05, No Iterations 0
GAMG:  Solving for ILambda_8_0, Initial residual = 9.8807396e-05, Final residual = 9.8807396e-05, No Iterations 0
GAMG:  Solving for ILambda_9_0, Initial residual = 9.8736661e-05, Final residual = 9.8736661e-05, No Iterations 0
GAMG:  Solving for ILambda_10_0, Initial residual = 9.8736661e-05, Final residual = 9.8736661e-05, No Iterations 0
GAMG:  Solving for ILambda_11_0, Initial residual = 9.8807396e-05, Final residual = 9.8807396e-05, No Iterations 0
GAMG:  Solving for ILambda_12_0, Initial residual = 9.97093e-05, Final residual = 9.97093e-05, No Iterations 0
GAMG:  Solving for ILambda_13_0, Initial residual = 8.7713484e-05, Final residual = 8.7713484e-05, No Iterations 0
GAMG:  Solving for ILambda_14_0, Initial residual = 8.7713484e-05, Final residual = 8.7713484e-05, No Iterations 0
GAMG:  Solving for ILambda_15_0, Initial residual = 9.97093e-05, Final residual = 9.97093e-05, No Iterations 0
Radiation solver iter: 4
GAMG:  Solving for ILambda_0_0, Initial residual = 9.9944659e-05, Final residual = 9.9944659e-05, No Iterations 0
GAMG:  Solving for ILambda_1_0, Initial residual = 9.339261e-05, Final residual = 9.339261e-05, No Iterations 0
GAMG:  Solving for ILambda_2_0, Initial residual = 9.339261e-05, Final residual = 9.339261e-05, No Iterations 0
GAMG:  Solving for ILambda_3_0, Initial residual = 9.9944659e-05, Final residual = 9.9944659e-05, No Iterations 0
GAMG:  Solving for ILambda_4_0, Initial residual = 9.777097e-05, Final residual = 9.777097e-05, No Iterations 0
GAMG:  Solving for ILambda_5_0, Initial residual = 8.5930635e-05, Final residual = 8.5930635e-05, No Iterations 0
GAMG:  Solving for ILambda_6_0, Initial residual = 8.5930635e-05, Final residual = 8.5930635e-05, No Iterations 0
GAMG:  Solving for ILambda_7_0, Initial residual = 9.777097e-05, Final residual = 9.777097e-05, No Iterations 0
GAMG:  Solving for ILambda_8_0, Initial residual = 9.8807396e-05, Final residual = 9.8807396e-05, No Iterations 0
GAMG:  Solving for ILambda_9_0, Initial residual = 9.8736661e-05, Final residual = 9.8736661e-05, No Iterations 0
GAMG:  Solving for ILambda_10_0, Initial residual = 9.8736661e-05, Final residual = 9.8736661e-05, No Iterations 0
GAMG:  Solving for ILambda_11_0, Initial residual = 9.8807396e-05, Final residual = 9.8807396e-05, No Iterations 0
GAMG:  Solving for ILambda_12_0, Initial residual = 9.97093e-05, Final residual = 9.97093e-05, No Iterations 0
GAMG:  Solving for ILambda_13_0, Initial residual = 8.7713484e-05, Final residual = 8.7713484e-05, No Iterations 0
GAMG:  Solving for ILambda_14_0, Initial residual = 8.7713484e-05, Final residual = 8.7713484e-05, No Iterations 0
GAMG:  Solving for ILambda_15_0, Initial residual = 9.97093e-05, Final residual = 9.97093e-05, No Iterations 0
Radiation solver iter: 5
GAMG:  Solving for ILambda_0_0, Initial residual = 9.9944659e-05, Final residual = 9.9944659e-05, No Iterations 0
GAMG:  Solving for ILambda_1_0, Initial residual = 9.339261e-05, Final residual = 9.339261e-05, No Iterations 0
GAMG:  Solving for ILambda_2_0, Initial residual = 9.339261e-05, Final residual = 9.339261e-05, No Iterations 0
GAMG:  Solving for ILambda_3_0, Initial residual = 9.9944659e-05, Final residual = 9.9944659e-05, No Iterations 0
GAMG:  Solving for ILambda_4_0, Initial residual = 9.777097e-05, Final residual = 9.777097e-05, No Iterations 0
GAMG:  Solving for ILambda_5_0, Initial residual = 8.5930635e-05, Final residual = 8.5930635e-05, No Iterations 0
GAMG:  Solving for ILambda_6_0, Initial residual = 8.5930635e-05, Final residual = 8.5930635e-05, No Iterations 0
GAMG:  Solving for ILambda_7_0, Initial residual = 9.777097e-05, Final residual = 9.777097e-05, No Iterations 0
GAMG:  Solving for ILambda_8_0, Initial residual = 9.8807396e-05, Final residual = 9.8807396e-05, No Iterations 0
GAMG:  Solving for ILambda_9_0, Initial residual = 9.8736661e-05, Final residual = 9.8736661e-05, No Iterations 0
GAMG:  Solving for ILambda_10_0, Initial residual = 9.8736661e-05, Final residual = 9.8736661e-05, No Iterations 0
GAMG:  Solving for ILambda_11_0, Initial residual = 9.8807396e-05, Final residual = 9.8807396e-05, No Iterations 0
GAMG:  Solving for ILambda_12_0, Initial residual = 9.97093e-05, Final residual = 9.97093e-05, No Iterations 0
GAMG:  Solving for ILambda_13_0, Initial residual = 8.7713484e-05, Final residual = 8.7713484e-05, No Iterations 0
GAMG:  Solving for ILambda_14_0, Initial residual = 8.7713484e-05, Final residual = 8.7713484e-05, No Iterations 0
GAMG:  Solving for ILambda_15_0, Initial residual = 9.97093e-05, Final residual = 9.97093e-05, No Iterations 0
Radiation solver iter: 6
GAMG:  Solving for ILambda_0_0, Initial residual = 9.9944659e-05, Final residual = 9.9944659e-05, No Iterations 0
GAMG:  Solving for ILambda_1_0, Initial residual = 9.339261e-05, Final residual = 9.339261e-05, No Iterations 0
GAMG:  Solving for ILambda_2_0, Initial residual = 9.339261e-05, Final residual = 9.339261e-05, No Iterations 0
GAMG:  Solving for ILambda_3_0, Initial residual = 9.9944659e-05, Final residual = 9.9944659e-05, No Iterations 0
GAMG:  Solving for ILambda_4_0, Initial residual = 9.777097e-05, Final residual = 9.777097e-05, No Iterations 0
GAMG:  Solving for ILambda_5_0, Initial residual = 8.5930635e-05, Final residual = 8.5930635e-05, No Iterations 0
GAMG:  Solving for ILambda_6_0, Initial residual = 8.5930635e-05, Final residual = 8.5930635e-05, No Iterations 0
GAMG:  Solving for ILambda_7_0, Initial residual = 9.777097e-05, Final residual = 9.777097e-05, No Iterations 0
GAMG:  Solving for ILambda_8_0, Initial residual = 9.8807396e-05, Final residual = 9.8807396e-05, No Iterations 0
GAMG:  Solving for ILambda_9_0, Initial residual = 9.8736661e-05, Final residual = 9.8736661e-05, No Iterations 0
GAMG:  Solving for ILambda_10_0, Initial residual = 9.8736661e-05, Final residual = 9.8736661e-05, No Iterations 0
GAMG:  Solving for ILambda_11_0, Initial residual = 9.8807396e-05, Final residual = 9.8807396e-05, No Iterations 0
GAMG:  Solving for ILambda_12_0, Initial residual = 9.97093e-05, Final residual = 9.97093e-05, No Iterations 0
GAMG:  Solving for ILambda_13_0, Initial residual = 8.7713484e-05, Final residual = 8.7713484e-05, No Iterations 0
GAMG:  Solving for ILambda_14_0, Initial residual = 8.7713484e-05, Final residual = 8.7713484e-05, No Iterations 0
GAMG:  Solving for ILambda_15_0, Initial residual = 9.97093e-05, Final residual = 9.97093e-05, No Iterations 0
Radiation solver iter: 7
GAMG:  Solving for ILambda_0_0, Initial residual = 9.9944659e-05, Final residual = 9.9944659e-05, No Iterations 0
GAMG:  Solving for ILambda_1_0, Initial residual = 9.339261e-05, Final residual = 9.339261e-05, No Iterations 0
GAMG:  Solving for ILambda_2_0, Initial residual = 9.339261e-05, Final residual = 9.339261e-05, No Iterations 0
GAMG:  Solving for ILambda_3_0, Initial residual = 9.9944659e-05, Final residual = 9.9944659e-05, No Iterations 0
GAMG:  Solving for ILambda_4_0, Initial residual = 9.777097e-05, Final residual = 9.777097e-05, No Iterations 0
GAMG:  Solving for ILambda_5_0, Initial residual = 8.5930635e-05, Final residual = 8.5930635e-05, No Iterations 0
GAMG:  Solving for ILambda_6_0, Initial residual = 8.5930635e-05, Final residual = 8.5930635e-05, No Iterations 0
GAMG:  Solving for ILambda_7_0, Initial residual = 9.777097e-05, Final residual = 9.777097e-05, No Iterations 0
GAMG:  Solving for ILambda_8_0, Initial residual = 9.8807396e-05, Final residual = 9.8807396e-05, No Iterations 0
GAMG:  Solving for ILambda_9_0, Initial residual = 9.8736661e-05, Final residual = 9.8736661e-05, No Iterations 0
GAMG:  Solving for ILambda_10_0, Initial residual = 9.8736661e-05, Final residual = 9.8736661e-05, No Iterations 0
GAMG:  Solving for ILambda_11_0, Initial residual = 9.8807396e-05, Final residual = 9.8807396e-05, No Iterations 0
GAMG:  Solving for ILambda_12_0, Initial residual = 9.97093e-05, Final residual = 9.97093e-05, No Iterations 0
GAMG:  Solving for ILambda_13_0, Initial residual = 8.7713484e-05, Final residual = 8.7713484e-05, No Iterations 0
GAMG:  Solving for ILambda_14_0, Initial residual = 8.7713484e-05, Final residual = 8.7713484e-05, No Iterations 0
GAMG:  Solving for ILambda_15_0, Initial residual = 9.97093e-05, Final residual = 9.97093e-05, No Iterations 0
Radiation solver iter: 8
GAMG:  Solving for ILambda_0_0, Initial residual = 9.9944659e-05, Final residual = 9.9944659e-05, No Iterations 0
GAMG:  Solving for ILambda_1_0, Initial residual = 9.339261e-05, Final residual = 9.339261e-05, No Iterations 0
GAMG:  Solving for ILambda_2_0, Initial residual = 9.339261e-05, Final residual = 9.339261e-05, No Iterations 0
GAMG:  Solving for ILambda_3_0, Initial residual = 9.9944659e-05, Final residual = 9.9944659e-05, No Iterations 0
GAMG:  Solving for ILambda_4_0, Initial residual = 9.777097e-05, Final residual = 9.777097e-05, No Iterations 0
GAMG:  Solving for ILambda_5_0, Initial residual = 8.5930635e-05, Final residual = 8.5930635e-05, No Iterations 0
GAMG:  Solving for ILambda_6_0, Initial residual = 8.5930635e-05, Final residual = 8.5930635e-05, No Iterations 0
GAMG:  Solving for ILambda_7_0, Initial residual = 9.777097e-05, Final residual = 9.777097e-05, No Iterations 0
GAMG:  Solving for ILambda_8_0, Initial residual = 9.8807396e-05, Final residual = 9.8807396e-05, No Iterations 0
GAMG:  Solving for ILambda_9_0, Initial residual = 9.8736661e-05, Final residual = 9.8736661e-05, No Iterations 0
GAMG:  Solving for ILambda_10_0, Initial residual = 9.8736661e-05, Final residual = 9.8736661e-05, No Iterations 0
GAMG:  Solving for ILambda_11_0, Initial residual = 9.8807396e-05, Final residual = 9.8807396e-05, No Iterations 0
GAMG:  Solving for ILambda_12_0, Initial residual = 9.97093e-05, Final residual = 9.97093e-05, No Iterations 0
GAMG:  Solving for ILambda_13_0, Initial residual = 8.7713484e-05, Final residual = 8.7713484e-05, No Iterations 0
GAMG:  Solving for ILambda_14_0, Initial residual = 8.7713484e-05, Final residual = 8.7713484e-05, No Iterations 0
GAMG:  Solving for ILambda_15_0, Initial residual = 9.97093e-05, Final residual = 9.97093e-05, No Iterations 0
Radiation solver iter: 9
GAMG:  Solving for ILambda_0_0, Initial residual = 9.9944659e-05, Final residual = 9.9944659e-05, No Iterations 0
GAMG:  Solving for ILambda_1_0, Initial residual = 9.339261e-05, Final residual = 9.339261e-05, No Iterations 0
GAMG:  Solving for ILambda_2_0, Initial residual = 9.339261e-05, Final residual = 9.339261e-05, No Iterations 0
GAMG:  Solving for ILambda_3_0, Initial residual = 9.9944659e-05, Final residual = 9.9944659e-05, No Iterations 0
GAMG:  Solving for ILambda_4_0, Initial residual = 9.777097e-05, Final residual = 9.777097e-05, No Iterations 0
GAMG:  Solving for ILambda_5_0, Initial residual = 8.5930635e-05, Final residual = 8.5930635e-05, No Iterations 0
GAMG:  Solving for ILambda_6_0, Initial residual = 8.5930635e-05, Final residual = 8.5930635e-05, No Iterations 0
GAMG:  Solving for ILambda_7_0, Initial residual = 9.777097e-05, Final residual = 9.777097e-05, No Iterations 0
GAMG:  Solving for ILambda_8_0, Initial residual = 9.8807396e-05, Final residual = 9.8807396e-05, No Iterations 0
GAMG:  Solving for ILambda_9_0, Initial residual = 9.8736661e-05, Final residual = 9.8736661e-05, No Iterations 0
GAMG:  Solving for ILambda_10_0, Initial residual = 9.8736661e-05, Final residual = 9.8736661e-05, No Iterations 0
GAMG:  Solving for ILambda_11_0, Initial residual = 9.8807396e-05, Final residual = 9.8807396e-05, No Iterations 0
GAMG:  Solving for ILambda_12_0, Initial residual = 9.97093e-05, Final residual = 9.97093e-05, No Iterations 0
GAMG:  Solving for ILambda_13_0, Initial residual = 8.7713484e-05, Final residual = 8.7713484e-05, No Iterations 0
GAMG:  Solving for ILambda_14_0, Initial residual = 8.7713484e-05, Final residual = 8.7713484e-05, No Iterations 0
GAMG:  Solving for ILambda_15_0, Initial residual = 9.97093e-05, Final residual = 9.97093e-05, No Iterations 0
GAMG:  Solving for p_rgh, Initial residual = 1.0496574e-06, Final residual = 4.1988649e-08, No Iterations 1
time step continuity errors : sum local = 8.3910356e-07, global = -1.9803631e-07, cumulative = 0.001784496
ExecutionTime = 49.7 s  ClockTime = 50 s
Inflow      : 4.4937373e-05 [kg/s]
Outflow     : 4.4937208e-05 [kg/s]
EnergyInflow  : 13.277295 [W]
EnergyOutflow : 13.883694 [W]
EnergyBalance : 0.60639877 [W]
rho max/avg/min : 1.2016455 1.0518281 0.7375119
T   max/avg/min : 478.44955 345.17384 293.68562
P   max/avg/min : 101324.91 101316.16 101307.4
Prg max/avg/min : 101325 101323.82 101318.21
U   max/avg/min : 1.4755067 0.39376908 0
Prg max-min : 6.791638
 
sngrad(rho) :-0.00013960737 -0.00021932283 -0.00036913253
 
Iteration Number = 741

DILUPBiCG:  Solving for Ux, Initial residual = 5.0808624e-06, Final residual = 5.7479017e-10, No Iterations 2
DILUPBiCG:  Solving for Uy, Initial residual = 0.01585246, Final residual = 1.1605891e-05, No Iterations 2
DILUPBiCG:  Solving for Uz, Initial residual = 3.9893932e-06, Final residual = 1.24262e-09, No Iterations 2
DILUPBiCG:  Solving for h, Initial residual = 9.4518618e-07, Final residual = 4.9726527e-09, No Iterations 3
GAMG:  Solving for p_rgh, Initial residual = 1.0500927e-06, Final residual = 4.1770658e-08, No Iterations 1
time step continuity errors : sum local = 8.3090304e-07, global = -1.9588874e-07, cumulative = 0.0017843001
ExecutionTime = 49.73 s  ClockTime = 50 s
Inflow      : 4.4937353e-05 [kg/s]
Outflow     : 4.493719e-05 [kg/s]
EnergyInflow  : 13.277289 [W]
EnergyOutflow : 13.883689 [W]
EnergyBalance : 0.60639938 [W]
rho max/avg/min : 1.2016455 1.0518284 0.73751203
T   max/avg/min : 478.44947 345.17373 293.68562
P   max/avg/min : 101324.91 101316.16 101307.4
Prg max/avg/min : 101325 101323.82 101318.21
U   max/avg/min : 1.4755194 0.39377181 0
Prg max-min : 6.7916364
 
sngrad(rho) :-6.9450999e-05 -0.00021267018 -0.00036672211
 
Iteration Number = 742

DILUPBiCG:  Solving for Ux, Initial residual = 5.0435571e-06, Final residual = 5.2197742e-10, No Iterations 2
DILUPBiCG:  Solving for Uy, Initial residual = 0.015320082, Final residual = 8.1455142e-07, No Iterations 3
DILUPBiCG:  Solving for Uz, Initial residual = 3.9499518e-06, Final residual = 1.2289561e-09, No Iterations 2
DILUPBiCG:  Solving for h, Initial residual = 8.0857674e-07, Final residual = 4.4769518e-09, No Iterations 3
GAMG:  Solving for p_rgh, Initial residual = 1.0288747e-06, Final residual = 4.140064e-08, No Iterations 1
time step continuity errors : sum local = 8.2249855e-07, global = -1.9332437e-07, cumulative = 0.0017841068
ExecutionTime = 49.75 s  ClockTime = 50 s
Inflow      : 4.4937334e-05 [kg/s]
Outflow     : 4.4937172e-05 [kg/s]
EnergyInflow  : 13.277283 [W]
EnergyOutflow : 13.883684 [W]
EnergyBalance : 0.60640009 [W]
rho max/avg/min : 1.2016455 1.0518287 0.73751255
T   max/avg/min : 478.44913 345.17362 293.68562
P   max/avg/min : 101324.91 101316.16 101307.4
Prg max/avg/min : 101325 101323.82 101318.21
U   max/avg/min : 1.475532 0.39377452 0
Prg max-min : 6.7916289
 
sngrad(rho) :-0.00012181781 -0.00021260984 -0.00036444097
 
Iteration Number = 743

DILUPBiCG:  Solving for Ux, Initial residual = 4.9942167e-06, Final residual = 5.5231734e-10, No Iterations 2
DILUPBiCG:  Solving for Uy, Initial residual = 0.015251127, Final residual = 8.9967791e-06, No Iterations 2
DILUPBiCG:  Solving for Uz, Initial residual = 3.9106898e-06, Final residual = 1.215511e-09, No Iterations 2
DILUPBiCG:  Solving for h, Initial residual = 8.0918428e-07, Final residual = 4.4152003e-09, No Iterations 3
GAMG:  Solving for p_rgh, Initial residual = 1.0196769e-06, Final residual = 4.1009565e-08, No Iterations 1
time step continuity errors : sum local = 8.1394864e-07, global = -1.9168983e-07, cumulative = 0.0017839151
ExecutionTime = 49.79 s  ClockTime = 50 s
Inflow      : 4.4937315e-05 [kg/s]
Outflow     : 4.4937155e-05 [kg/s]
EnergyInflow  : 13.277278 [W]
EnergyOutflow : 13.883678 [W]
EnergyBalance : 0.60640058 [W]
rho max/avg/min : 1.2016455 1.0518289 0.73751319
T   max/avg/min : 478.44872 345.17351 293.68562
P   max/avg/min : 101324.91 101316.16 101307.4
Prg max/avg/min : 101325 101323.82 101318.21
U   max/avg/min : 1.4755445 0.3937772 0
Prg max-min : 6.7916197
 
sngrad(rho) :-0.00013855179 -0.00021228194 -0.00036209679
 
Iteration Number = 744

DILUPBiCG:  Solving for Ux, Initial residual = 4.9464528e-06, Final residual = 5.3136217e-10, No Iterations 2
DILUPBiCG:  Solving for Uy, Initial residual = 0.016369129, Final residual = 1.1841713e-05, No Iterations 2
DILUPBiCG:  Solving for Uz, Initial residual = 3.8718047e-06, Final residual = 1.2016813e-09, No Iterations 2
DILUPBiCG:  Solving for h, Initial residual = 8.0979239e-07, Final residual = 4.3974669e-09, No Iterations 3
GAMG:  Solving for p_rgh, Initial residual = 1.0102939e-06, Final residual = 4.0429482e-08, No Iterations 1
time step continuity errors : sum local = 8.0519276e-07, global = -1.8998692e-07, cumulative = 0.0017837251
ExecutionTime = 49.82 s  ClockTime = 50 s
Inflow      : 4.4937296e-05 [kg/s]
Outflow     : 4.4937137e-05 [kg/s]
EnergyInflow  : 13.277272 [W]
EnergyOutflow : 13.883673 [W]
EnergyBalance : 0.60640108 [W]
rho max/avg/min : 1.2016455 1.0518292 0.7375139
T   max/avg/min : 478.44825 345.17341 293.68562
P   max/avg/min : 101324.91 101316.16 101307.4
Prg max/avg/min : 101325 101323.82 101318.21
U   max/avg/min : 1.4755568 0.39377985 0
Prg max-min : 6.7916095
 
sngrad(rho) :-0.00013960813 -0.00021195679 -0.0003597167
 
Iteration Number = 745

DILUPBiCG:  Solving for Ux, Initial residual = 4.8832489e-06, Final residual = 5.3675423e-10, No Iterations 2
DILUPBiCG:  Solving for Uy, Initial residual = 0.015652698, Final residual = 1.6238907e-07, No Iterations 3
DILUPBiCG:  Solving for Uz, Initial residual = 3.8335637e-06, Final residual = 1.1885314e-09, No Iterations 2
DILUPBiCG:  Solving for h, Initial residual = 8.1037716e-07, Final residual = 4.3931441e-09, No Iterations 3
GAMG:  Solving for p_rgh, Initial residual = 1.0012728e-06, Final residual = 4.0167616e-08, No Iterations 1
time step continuity errors : sum local = 7.9717754e-07, global = -1.8866805e-07, cumulative = 0.0017835364
ExecutionTime = 49.85 s  ClockTime = 50 s
Inflow      : 4.4937278e-05 [kg/s]
Outflow     : 4.493712e-05 [kg/s]
EnergyInflow  : 13.277267 [W]
EnergyOutflow : 13.883668 [W]
EnergyBalance : 0.60640148 [W]
rho max/avg/min : 1.2016455 1.0518294 0.73751466
T   max/avg/min : 478.44776 345.1733 293.68562
P   max/avg/min : 101324.91 101316.16 101307.4
Prg max/avg/min : 101325 101323.82 101318.21
U   max/avg/min : 1.475569 0.39378248 0
Prg max-min : 6.7915985
 
sngrad(rho) :-0.00013960438 -0.00021164878 -0.0003572565
 
Iteration Number = 746

DILUPBiCG:  Solving for Ux, Initial residual = 4.8683695e-06, Final residual = 5.0977141e-10, No Iterations 2
DILUPBiCG:  Solving for Uy, Initial residual = 0.016266645, Final residual = 8.4596871e-06, No Iterations 2
DILUPBiCG:  Solving for Uz, Initial residual = 3.7956561e-06, Final residual = 1.1748856e-09, No Iterations 2
DILUPBiCG:  Solving for h, Initial residual = 8.1098636e-07, Final residual = 4.4066156e-09, No Iterations 3
GAMG:  Solving for p_rgh, Initial residual = 9.9129945e-07, Final residual = 9.9129945e-07, No Iterations 0
time step continuity errors : sum local = 1.971216e-05, global = -2.0084857e-07, cumulative = 0.0017833356
ExecutionTime = 49.87 s  ClockTime = 50 s
Inflow      : 4.4937271e-05 [kg/s]
Outflow     : 4.4937103e-05 [kg/s]
EnergyInflow  : 13.277265 [W]
EnergyOutflow : 13.883663 [W]
EnergyBalance : 0.60639856 [W]
rho max/avg/min : 1.2016455 1.0518297 0.73751546
T   max/avg/min : 478.44724 345.17319 293.68562
P   max/avg/min : 101324.91 101316.16 101307.4
Prg max/avg/min : 101325 101323.82 101318.21
U   max/avg/min : 1.4755814 0.3937851 0
Prg max-min : 6.7915985
 
sngrad(rho) :-0.00013960594 -0.00021136862 -0.00035478397
 

SIMPLE solution converged in 746 iterations

End

