/*---------------------------------------------------------------------------*\
| =========                 |                                                 |
| \\      /  F ield         | OpenFOAM: The Open Source CFD Toolbox           |
|  \\    /   O peration     | Version:  3.0.1                                 |
|   \\  /    A nd           | Web:      www.OpenFOAM.org                      |
|    \\/     M anipulation  |                                                 |
\*---------------------------------------------------------------------------*/
Build  : 3.0.1-119cac7e8750
Exec   : pupobuoyantSimpleFoam
Date   : Jun 29 2016
Time   : 13:42:44
Host   : "SC500"
PID    : 11388
Case   : /home/pedro/Documents/ThesisProject/OpenFoam/validation1rod/AppENOFLOW
nProcs : 1
sigFpe : Enabling floating point exception trapping (FOAM_SIGFPE).
fileModificationChecking : Monitoring run-time modified files using timeStampMaster
allowSystemOperations : Allowing user-supplied system call operations

// * * * * * * * * * * * * * * * * * * * * * * * * * * * * * * * * * * * * * //
Create time

Create mesh for time = 0


SIMPLE: convergence criteria
    field p_rgh	 tolerance 1e-06
    field Uz	 tolerance 1e-06
    field h	 tolerance 1e-06

Reading thermophysical properties

Selecting thermodynamics package 
{
    type            heRhoThermo;
    mixture         pureMixture;
    transport       sutherland;
    thermo          hConst;
    equationOfState perfectGas;
    specie          specie;
    energy          sensibleEnthalpy;
}


Reading g

Reading hRef
Calculating field g.h

Reading fields

rho max/avg/min : 1.2016452 1.2015415 1.2014377
T   max/avg/min : 293.7 293.7 293.7
P   max/avg/min : 101324.91 101316.16 101307.41
Prg max/avg/min : 101325 101325 101325
U   max/avg/min : 0 0 0
Reading/calculating face flux field phi

Creating turbulence model

Selecting turbulence model type laminar
No MRF models present

No finite volume options present

Selecting radiationModel none

Starting Iteration loop


Iteration Number = 1

DILUPBiCG:  Solving for Ux, Initial residual = 0.574705, Final residual = 0.0015701466, No Iterations 1
DILUPBiCG:  Solving for Uy, Initial residual = 4.8570867e-05, Final residual = 1.5492033e-07, No Iterations 1
DILUPBiCG:  Solving for Uz, Initial residual = 1, Final residual = 0.0026036149, No Iterations 1
DILUPBiCG:  Solving for h, Initial residual = 0.99999858, Final residual = 0.0017492305, No Iterations 3
GAMG:  Solving for p_rgh, Initial residual = 0.99988996, Final residual = 0.0066124183, No Iterations 4
time step continuity errors : sum local = 7.283707e-06, global = -3.1002658e-06, cumulative = -3.1002658e-06
ExecutionTime = 0.07 s  ClockTime = 0 s
Inflow      : -6.4828763e-07 [kg/s]
Outflow     : -6.5087325e-07 [kg/s]
EnergyInflow  : -0.19154449 [W]
EnergyOutflow : -0.19230853 [W]
rho max/avg/min : 1.2016452 1.2015414 1.2014369
T   max/avg/min : 293.70018 293.70001 293.7
P   max/avg/min : 101324.91 101316.16 101307.41
Prg max/avg/min : 101325 101325 101325
U   max/avg/min : 0 -0.00019691714 -0.0016518708
 

Iteration Number = 2

DILUPBiCG:  Solving for Ux, Initial residual = 0.27597308, Final residual = 0.0010511951, No Iterations 1
DILUPBiCG:  Solving for Uy, Initial residual = 0.00022648229, Final residual = 1.17068e-06, No Iterations 1
DILUPBiCG:  Solving for Uz, Initial residual = 0.27958321, Final residual = 0.00080901873, No Iterations 1
DILUPBiCG:  Solving for h, Initial residual = 0.51003208, Final residual = 0.0013896357, No Iterations 3
GAMG:  Solving for p_rgh, Initial residual = 0.026022197, Final residual = 0.00013659064, No Iterations 3
time step continuity errors : sum local = 9.8974428e-06, global = -3.8952909e-06, cumulative = -6.9955567e-06
ExecutionTime = 0.11 s  ClockTime = 0 s
Inflow      : -1.1514132e-06 [kg/s]
Outflow     : -1.1546618e-06 [kg/s]
EnergyInflow  : -0.34019906 [W]
EnergyOutflow : -0.34115918 [W]
rho max/avg/min : 1.2016452 1.2015413 1.2014365
T   max/avg/min : 293.70041 293.70004 293.7
P   max/avg/min : 101324.91 101316.16 101307.41
Prg max/avg/min : 101325 101325 101325
U   max/avg/min : 0 -0.00042206282 -0.0026474237
 

Iteration Number = 3

DILUPBiCG:  Solving for Ux, Initial residual = 0.1889396, Final residual = 0.000889422, No Iterations 1
DILUPBiCG:  Solving for Uy, Initial residual = 0.00035651644, Final residual = 2.1457717e-06, No Iterations 1
DILUPBiCG:  Solving for Uz, Initial residual = 0.15619399, Final residual = 0.0004825012, No Iterations 1
DILUPBiCG:  Solving for h, Initial residual = 0.25966778, Final residual = 0.0019461452, No Iterations 3
GAMG:  Solving for p_rgh, Initial residual = 0.026111347, Final residual = 0.00023265414, No Iterations 3
time step continuity errors : sum local = 1.9844294e-05, global = -1.516831e-06, cumulative = -8.5123878e-06
ExecutionTime = 0.15 s  ClockTime = 0 s
Inflow      : -1.5544005e-06 [kg/s]
Outflow     : -1.5556655e-06 [kg/s]
EnergyInflow  : -0.45926658 [W]
EnergyOutflow : -0.45964082 [W]
rho max/avg/min : 1.2016452 1.2015411 1.2014361
T   max/avg/min : 293.70072 293.70008 293.7
P   max/avg/min : 101324.91 101316.16 101307.41
Prg max/avg/min : 101325 101325 101325
U   max/avg/min : 0 -0.00060144413 -0.0036393826
 

Iteration Number = 4

DILUPBiCG:  Solving for Ux, Initial residual = 0.12284355, Final residual = 0.00076765835, No Iterations 1
DILUPBiCG:  Solving for Uy, Initial residual = 0.00044448955, Final residual = 3.0610906e-06, No Iterations 1
DILUPBiCG:  Solving for Uz, Initial residual = 0.086696152, Final residual = 0.00028520718, No Iterations 1
DILUPBiCG:  Solving for h, Initial residual = 0.1599334, Final residual = 0.0011728435, No Iterations 3
GAMG:  Solving for p_rgh, Initial residual = 0.032257793, Final residual = 0.0002056043, No Iterations 3
time step continuity errors : sum local = 1.1577965e-05, global = -1.2132655e-06, cumulative = -9.7256533e-06
ExecutionTime = 0.18 s  ClockTime = 0 s
Inflow      : -1.907716e-06 [kg/s]
Outflow     : -1.9087279e-06 [kg/s]
EnergyInflow  : -0.56365797 [W]
EnergyOutflow : -0.56395766 [W]
rho max/avg/min : 1.2016452 1.2015409 1.2014358
T   max/avg/min : 293.70104 293.70013 293.7
P   max/avg/min : 101324.91 101316.16 101307.41
Prg max/avg/min : 101325 101325 101325
U   max/avg/min : 0 -0.00073565531 -0.0042604618
 

Iteration Number = 5

DILUPBiCG:  Solving for Ux, Initial residual = 0.19085675, Final residual = 0.0014351869, No Iterations 1
DILUPBiCG:  Solving for Uy, Initial residual = 0.00051593848, Final residual = 3.8018074e-06, No Iterations 1
DILUPBiCG:  Solving for Uz, Initial residual = 0.056657671, Final residual = 0.00019455544, No Iterations 1
DILUPBiCG:  Solving for h, Initial residual = 0.1163014, Final residual = 0.00016441463, No Iterations 4
GAMG:  Solving for p_rgh, Initial residual = 0.038573565, Final residual = 9.5413534e-05, No Iterations 3
time step continuity errors : sum local = 3.6381629e-06, global = 2.107336e-06, cumulative = -7.6183173e-06
ExecutionTime = 0.22 s  ClockTime = 0 s
Inflow      : -2.2340763e-06 [kg/s]
Outflow     : -2.2323188e-06 [kg/s]
EnergyInflow  : -0.66008509 [W]
EnergyOutflow : -0.65956682 [W]
rho max/avg/min : 1.2016452 1.2015407 1.2014354
T   max/avg/min : 293.70143 293.70019 293.7
P   max/avg/min : 101324.91 101316.16 101307.41
Prg max/avg/min : 101325 101325 101325
U   max/avg/min : 0 -0.00085626223 -0.004834833
 

Iteration Number = 6

DILUPBiCG:  Solving for Ux, Initial residual = 0.23222424, Final residual = 0.0017398079, No Iterations 1
DILUPBiCG:  Solving for Uy, Initial residual = 0.00056111306, Final residual = 4.2297002e-06, No Iterations 1
DILUPBiCG:  Solving for Uz, Initial residual = 0.048187982, Final residual = 0.00016648271, No Iterations 1
DILUPBiCG:  Solving for h, Initial residual = 0.094764045, Final residual = 0.00091537741, No Iterations 3
GAMG:  Solving for p_rgh, Initial residual = 0.037699357, Final residual = 0.0002844425, No Iterations 2
time step continuity errors : sum local = 1.0908604e-05, global = 6.7868057e-07, cumulative = -6.9396368e-06
ExecutionTime = 0.25 s  ClockTime = 0 s
Inflow      : -2.534449e-06 [kg/s]
Outflow     : -2.533883e-06 [kg/s]
EnergyInflow  : -0.74883387 [W]
EnergyOutflow : -0.74866797 [W]
rho max/avg/min : 1.2016452 1.2015405 1.2014351
T   max/avg/min : 293.70202 293.70024 293.7
P   max/avg/min : 101324.91 101316.16 101307.41
Prg max/avg/min : 101325 101325 101325
U   max/avg/min : 0 -0.00097740164 -0.0053910702
 

Iteration Number = 7

DILUPBiCG:  Solving for Ux, Initial residual = 0.2438159, Final residual = 0.0016634824, No Iterations 1
DILUPBiCG:  Solving for Uy, Initial residual = 0.0005610319, Final residual = 4.2651124e-06, No Iterations 1
DILUPBiCG:  Solving for Uz, Initial residual = 0.043729808, Final residual = 0.00014996121, No Iterations 1
DILUPBiCG:  Solving for h, Initial residual = 0.080988453, Final residual = 0.00078882642, No Iterations 3
GAMG:  Solving for p_rgh, Initial residual = 0.038614442, Final residual = 7.3331081e-05, No Iterations 3
time step continuity errors : sum local = 3.0849258e-06, global = -1.3777237e-06, cumulative = -8.3173605e-06
ExecutionTime = 0.29 s  ClockTime = 0 s
Inflow      : -2.8160522e-06 [kg/s]
Outflow     : -2.8172012e-06 [kg/s]
EnergyInflow  : -0.83203697 [W]
EnergyOutflow : -0.83237815 [W]
rho max/avg/min : 1.2016452 1.2015402 1.2014348
T   max/avg/min : 293.70273 293.70031 293.7
P   max/avg/min : 101324.91 101316.16 101307.41
Prg max/avg/min : 101325 101325 101325
U   max/avg/min : 0 -0.0010970132 -0.0059054846
 

Iteration Number = 8

DILUPBiCG:  Solving for Ux, Initial residual = 0.22156894, Final residual = 0.001520787, No Iterations 1
DILUPBiCG:  Solving for Uy, Initial residual = 0.0006586951, Final residual = 5.5802828e-06, No Iterations 1
DILUPBiCG:  Solving for Uz, Initial residual = 0.038551973, Final residual = 0.00013202361, No Iterations 1
DILUPBiCG:  Solving for h, Initial residual = 0.070611565, Final residual = 0.00069341683, No Iterations 3
GAMG:  Solving for p_rgh, Initial residual = 0.038686863, Final residual = 0.00018768852, No Iterations 2
time step continuity errors : sum local = 7.9921456e-06, global = 3.3306616e-06, cumulative = -4.9866989e-06
ExecutionTime = 0.32 s  ClockTime = 0 s
Inflow      : -3.0881554e-06 [kg/s]
Outflow     : -3.0853776e-06 [kg/s]
EnergyInflow  : -0.91243319 [W]
EnergyOutflow : -0.91161453 [W]
rho max/avg/min : 1.2016452 1.2015399 1.2014345
T   max/avg/min : 293.70354 293.70038 293.7
P   max/avg/min : 101324.91 101316.16 101307.41
Prg max/avg/min : 101325 101325 101325
U   max/avg/min : 0 -0.0012117755 -0.0063846411
 

Iteration Number = 9

DILUPBiCG:  Solving for Ux, Initial residual = 0.21067975, Final residual = 0.0015236604, No Iterations 1
DILUPBiCG:  Solving for Uy, Initial residual = 0.00067733477, Final residual = 5.6756607e-06, No Iterations 1
DILUPBiCG:  Solving for Uz, Initial residual = 0.033708035, Final residual = 0.0001154645, No Iterations 1
DILUPBiCG:  Solving for h, Initial residual = 0.062493272, Final residual = 0.00061671204, No Iterations 3
GAMG:  Solving for p_rgh, Initial residual = 0.036809979, Final residual = 0.00014073745, No Iterations 2
time step continuity errors : sum local = 5.8029129e-06, global = 2.1630263e-06, cumulative = -2.8236726e-06
ExecutionTime = 0.36 s  ClockTime = 0 s
Inflow      : -3.3425339e-06 [kg/s]
Outflow     : -3.3407299e-06 [kg/s]
EnergyInflow  : -0.98759242 [W]
EnergyOutflow : -0.98706189 [W]
rho max/avg/min : 1.2016452 1.2015396 1.2014341
T   max/avg/min : 293.70446 293.70045 293.7
P   max/avg/min : 101324.91 101316.16 101307.41
Prg max/avg/min : 101325 101325 101325
U   max/avg/min : 0 -0.0013206919 -0.0068356238
 

Iteration Number = 10

DILUPBiCG:  Solving for Ux, Initial residual = 0.19717604, Final residual = 0.0014352405, No Iterations 1
DILUPBiCG:  Solving for Uy, Initial residual = 0.00066209469, Final residual = 6.031878e-06, No Iterations 1
DILUPBiCG:  Solving for Uz, Initial residual = 0.029643149, Final residual = 0.00010178034, No Iterations 1
DILUPBiCG:  Solving for h, Initial residual = 0.055951132, Final residual = 0.00055261733, No Iterations 3
GAMG:  Solving for p_rgh, Initial residual = 0.03730317, Final residual = 0.00035948793, No Iterations 2
time step continuity errors : sum local = 1.4167756e-05, global = 4.3493102e-06, cumulative = 1.5256376e-06
ExecutionTime = 0.39 s  ClockTime = 0 s
Inflow      : -3.5886319e-06 [kg/s]
Outflow     : -3.5850046e-06 [kg/s]
EnergyInflow  : -1.0603051 [W]
EnergyOutflow : -1.0592362 [W]
rho max/avg/min : 1.2016452 1.2015393 1.2014338
T   max/avg/min : 293.70549 293.70052 293.7
P   max/avg/min : 101324.91 101316.16 101307.41
Prg max/avg/min : 101325 101325 101325
U   max/avg/min : 0 -0.0014257254 -0.0072630531
 

Iteration Number = 11

DILUPBiCG:  Solving for Ux, Initial residual = 0.19006676, Final residual = 0.0013900779, No Iterations 1
DILUPBiCG:  Solving for Uy, Initial residual = 0.00070677787, Final residual = 6.2149933e-06, No Iterations 1
DILUPBiCG:  Solving for Uz, Initial residual = 0.026933767, Final residual = 9.2540679e-05, No Iterations 1
DILUPBiCG:  Solving for h, Initial residual = 0.050709939, Final residual = 0.00049853626, No Iterations 3
GAMG:  Solving for p_rgh, Initial residual = 0.037375278, Final residual = 0.0002764812, No Iterations 2
time step continuity errors : sum local = 1.0803392e-05, global = 3.9749156e-06, cumulative = 5.5005531e-06
ExecutionTime = 0.42 s  ClockTime = 0 s
Inflow      : -3.8228819e-06 [kg/s]
Outflow     : -3.8195669e-06 [kg/s]
EnergyInflow  : -1.1295171 [W]
EnergyOutflow : -1.128541 [W]
rho max/avg/min : 1.2016452 1.201539 1.2014335
T   max/avg/min : 293.70662 293.7006 293.7
P   max/avg/min : 101324.91 101316.16 101307.41
Prg max/avg/min : 101325 101325 101325
U   max/avg/min : 0 -0.0015278033 -0.0076707374
 

Iteration Number = 12

DILUPBiCG:  Solving for Ux, Initial residual = 0.18015839, Final residual = 0.0013139903, No Iterations 1
DILUPBiCG:  Solving for Uy, Initial residual = 0.00068350698, Final residual = 6.4973201e-06, No Iterations 1
DILUPBiCG:  Solving for Uz, Initial residual = 0.024644277, Final residual = 8.4598e-05, No Iterations 1
DILUPBiCG:  Solving for h, Initial residual = 0.046351013, Final residual = 0.00045022553, No Iterations 3
GAMG:  Solving for p_rgh, Initial residual = 0.036717496, Final residual = 0.00023445894, No Iterations 2
time step continuity errors : sum local = 9.0070909e-06, global = 3.5511012e-06, cumulative = 9.0516543e-06
ExecutionTime = 0.46 s  ClockTime = 0 s
Inflow      : -4.0485055e-06 [kg/s]
Outflow     : -4.0455439e-06 [kg/s]
EnergyInflow  : -1.1961803 [W]
EnergyOutflow : -1.1953091 [W]
rho max/avg/min : 1.2016452 1.2015387 1.2014332
T   max/avg/min : 293.70786 293.70068 293.7
P   max/avg/min : 101324.91 101316.16 101307.41
Prg max/avg/min : 101325 101325 101325
U   max/avg/min : 0 -0.0016271132 -0.0080614242
 

Iteration Number = 13

DILUPBiCG:  Solving for Ux, Initial residual = 0.16963897, Final residual = 0.0012415861, No Iterations 1
DILUPBiCG:  Solving for Uy, Initial residual = 0.00069979514, Final residual = 6.5429045e-06, No Iterations 1
DILUPBiCG:  Solving for Uz, Initial residual = 0.022694669, Final residual = 7.7735191e-05, No Iterations 1
DILUPBiCG:  Solving for h, Initial residual = 0.042664853, Final residual = 0.00040855338, No Iterations 3
GAMG:  Solving for p_rgh, Initial residual = 0.03753542, Final residual = 0.00027088255, No Iterations 2
time step continuity errors : sum local = 1.0222822e-05, global = 3.4413745e-06, cumulative = 1.2493029e-05
ExecutionTime = 0.5 s  ClockTime = 0 s
Inflow      : -4.2667177e-06 [kg/s]
Outflow     : -4.2638476e-06 [kg/s]
EnergyInflow  : -1.2606538 [W]
EnergyOutflow : -1.2598101 [W]
rho max/avg/min : 1.2016452 1.2015384 1.2014329
T   max/avg/min : 293.70919 293.70076 293.7
P   max/avg/min : 101324.91 101316.16 101307.41
Prg max/avg/min : 101325 101325 101325
U   max/avg/min : 0 -0.0017239819 -0.0084371443
 

Iteration Number = 14

DILUPBiCG:  Solving for Ux, Initial residual = 0.15673026, Final residual = 0.0011480934, No Iterations 1
DILUPBiCG:  Solving for Uy, Initial residual = 0.00074245899, Final residual = 7.2994787e-06, No Iterations 1
DILUPBiCG:  Solving for Uz, Initial residual = 0.021060737, Final residual = 7.1869038e-05, No Iterations 1
DILUPBiCG:  Solving for h, Initial residual = 0.039487954, Final residual = 0.00037146572, No Iterations 3
GAMG:  Solving for p_rgh, Initial residual = 0.036525701, Final residual = 0.00022219856, No Iterations 2
time step continuity errors : sum local = 8.2601281e-06, global = 3.1561371e-06, cumulative = 1.5649166e-05
ExecutionTime = 0.52 s  ClockTime = 0 s
Inflow      : -4.4778777e-06 [kg/s]
Outflow     : -4.4752455e-06 [kg/s]
EnergyInflow  : -1.3230436 [W]
EnergyOutflow : -1.3222707 [W]
rho max/avg/min : 1.2016452 1.201538 1.2014326
T   max/avg/min : 293.71062 293.70084 293.7
P   max/avg/min : 101324.91 101316.16 101307.41
Prg max/avg/min : 101325 101325 101325
U   max/avg/min : 0 -0.0018186457 -0.0087995748
 

Iteration Number = 15

DILUPBiCG:  Solving for Ux, Initial residual = 0.15083795, Final residual = 0.0011217408, No Iterations 1
DILUPBiCG:  Solving for Uy, Initial residual = 0.00073259917, Final residual = 6.5048967e-06, No Iterations 1
DILUPBiCG:  Solving for Uz, Initial residual = 0.019642886, Final residual = 6.6858381e-05, No Iterations 1
DILUPBiCG:  Solving for h, Initial residual = 0.036722307, Final residual = 0.00033845108, No Iterations 3
GAMG:  Solving for p_rgh, Initial residual = 0.03792811, Final residual = 0.00026194199, No Iterations 2
time step continuity errors : sum local = 9.5744648e-06, global = 3.0667535e-06, cumulative = 1.8715919e-05
ExecutionTime = 0.56 s  ClockTime = 0 s
Inflow      : -4.6829429e-06 [kg/s]
Outflow     : -4.6803852e-06 [kg/s]
EnergyInflow  : -1.3836326 [W]
EnergyOutflow : -1.3828823 [W]
rho max/avg/min : 1.2016452 1.2015377 1.2014323
T   max/avg/min : 293.71214 293.70093 293.7
P   max/avg/min : 101324.91 101316.16 101307.41
Prg max/avg/min : 101325 101325 101325
U   max/avg/min : 0 -0.0019113298 -0.0091512823
 

Iteration Number = 16

DILUPBiCG:  Solving for Ux, Initial residual = 0.14950599, Final residual = 0.0011329398, No Iterations 1
DILUPBiCG:  Solving for Uy, Initial residual = 0.00077677612, Final residual = 7.1125347e-06, No Iterations 1
DILUPBiCG:  Solving for Uz, Initial residual = 0.018419522, Final residual = 6.2712345e-05, No Iterations 1
DILUPBiCG:  Solving for h, Initial residual = 0.034299105, Final residual = 0.00030901141, No Iterations 3
GAMG:  Solving for p_rgh, Initial residual = 0.038043023, Final residual = 0.00021067772, No Iterations 2
time step continuity errors : sum local = 7.5998734e-06, global = 2.8051001e-06, cumulative = 2.152102e-05
ExecutionTime = 0.59 s  ClockTime = 0 s
Inflow      : -4.8821614e-06 [kg/s]
Outflow     : -4.879822e-06 [kg/s]
EnergyInflow  : -1.4424942 [W]
EnergyOutflow : -1.4418089 [W]
rho max/avg/min : 1.2016452 1.2015373 1.201432
T   max/avg/min : 293.71375 293.70101 293.7
P   max/avg/min : 101324.91 101316.16 101307.41
Prg max/avg/min : 101325 101325 101325
U   max/avg/min : 0 -0.00200218 -0.009503852
 

Iteration Number = 17

DILUPBiCG:  Solving for Ux, Initial residual = 0.13557336, Final residual = 0.0010101907, No Iterations 1
DILUPBiCG:  Solving for Uy, Initial residual = 0.00076007403, Final residual = 2.0556991e-07, No Iterations 2
DILUPBiCG:  Solving for Uz, Initial residual = 0.017333902, Final residual = 5.900902e-05, No Iterations 1
DILUPBiCG:  Solving for h, Initial residual = 0.032138262, Final residual = 0.00028279484, No Iterations 3
GAMG:  Solving for p_rgh, Initial residual = 0.037330242, Final residual = 0.00021165107, No Iterations 2
time step continuity errors : sum local = 7.5305305e-06, global = 2.5166383e-06, cumulative = 2.4037658e-05
ExecutionTime = 0.63 s  ClockTime = 0 s
Inflow      : -5.0761238e-06 [kg/s]
Outflow     : -5.0740249e-06 [kg/s]
EnergyInflow  : -1.4998027 [W]
EnergyOutflow : -1.4991891 [W]
rho max/avg/min : 1.2016452 1.201537 1.2014318
T   max/avg/min : 293.71543 293.7011 293.7
P   max/avg/min : 101324.91 101316.16 101307.41
Prg max/avg/min : 101325 101325 101325
U   max/avg/min : 0 -0.0020913424 -0.0098468843
 

Iteration Number = 18

DILUPBiCG:  Solving for Ux, Initial residual = 0.1262508, Final residual = 0.00094087513, No Iterations 1
DILUPBiCG:  Solving for Uy, Initial residual = 0.00087532582, Final residual = 8.8596731e-08, No Iterations 2
DILUPBiCG:  Solving for Uz, Initial residual = 0.01637788, Final residual = 5.5692698e-05, No Iterations 1
DILUPBiCG:  Solving for h, Initial residual = 0.03020007, Final residual = 0.00025926048, No Iterations 3
GAMG:  Solving for p_rgh, Initial residual = 0.034704095, Final residual = 0.00020710108, No Iterations 2
time step continuity errors : sum local = 7.2658138e-06, global = 2.2377649e-06, cumulative = 2.6275423e-05
ExecutionTime = 0.66 s  ClockTime = 0 s
Inflow      : -5.2652733e-06 [kg/s]
Outflow     : -5.263407e-06 [kg/s]
EnergyInflow  : -1.5556892 [W]
EnergyOutflow : -1.5551449 [W]
rho max/avg/min : 1.2016452 1.2015366 1.2014315
T   max/avg/min : 293.7172 293.70118 293.7
P   max/avg/min : 101324.91 101316.16 101307.41
Prg max/avg/min : 101325 101325 101325
U   max/avg/min : 0 -0.002178959 -0.010180078
 

Iteration Number = 19

DILUPBiCG:  Solving for Ux, Initial residual = 0.12913042, Final residual = 0.00098130631, No Iterations 1
DILUPBiCG:  Solving for Uy, Initial residual = 0.00089254621, Final residual = 1.0743268e-07, No Iterations 2
DILUPBiCG:  Solving for Uz, Initial residual = 0.015527142, Final residual = 5.2708218e-05, No Iterations 1
DILUPBiCG:  Solving for h, Initial residual = 0.028451874, Final residual = 0.00023819511, No Iterations 3
GAMG:  Solving for p_rgh, Initial residual = 0.037242914, Final residual = 0.00017732801, No Iterations 2
time step continuity errors : sum local = 6.1326696e-06, global = 1.9254669e-06, cumulative = 2.820089e-05
ExecutionTime = 0.7 s  ClockTime = 0 s
Inflow      : -5.4499308e-06 [kg/s]
Outflow     : -5.4483249e-06 [kg/s]
EnergyInflow  : -1.6102485 [W]
EnergyOutflow : -1.6097818 [W]
rho max/avg/min : 1.2016452 1.2015363 1.2014312
T   max/avg/min : 293.71904 293.70127 293.7
P   max/avg/min : 101324.91 101316.16 101307.41
Prg max/avg/min : 101325 101325 101325
U   max/avg/min : 0 -0.0022651356 -0.010503603
 

Iteration Number = 20

DILUPBiCG:  Solving for Ux, Initial residual = 0.13810027, Final residual = 0.0010429943, No Iterations 1
DILUPBiCG:  Solving for Uy, Initial residual = 0.00094251479, Final residual = 9.2080867e-06, No Iterations 1
DILUPBiCG:  Solving for Uz, Initial residual = 0.014762672, Final residual = 5.0005434e-05, No Iterations 1
DILUPBiCG:  Solving for h, Initial residual = 0.026864818, Final residual = 0.00021870184, No Iterations 3
GAMG:  Solving for p_rgh, Initial residual = 0.039472382, Final residual = 0.00018256964, No Iterations 2
time step continuity errors : sum local = 6.2220908e-06, global = 1.5891419e-06, cumulative = 2.9790032e-05
ExecutionTime = 0.72 s  ClockTime = 0 s
Inflow      : -5.6304187e-06 [kg/s]
Outflow     : -5.6290933e-06 [kg/s]
EnergyInflow  : -1.6635759 [W]
EnergyOutflow : -1.6631927 [W]
rho max/avg/min : 1.2016452 1.2015359 1.2014309
T   max/avg/min : 293.72096 293.70136 293.7
P   max/avg/min : 101324.91 101316.16 101307.41
Prg max/avg/min : 101325 101325 101325
U   max/avg/min : 0 -0.0023499788 -0.010818369
 

Iteration Number = 21

DILUPBiCG:  Solving for Ux, Initial residual = 0.12626193, Final residual = 0.00091901153, No Iterations 1
DILUPBiCG:  Solving for Uy, Initial residual = 0.0010155854, Final residual = 9.9760752e-06, No Iterations 1
DILUPBiCG:  Solving for Uz, Initial residual = 0.014075417, Final residual = 4.7607217e-05, No Iterations 1
DILUPBiCG:  Solving for h, Initial residual = 0.025412103, Final residual = 0.00020096088, No Iterations 3
GAMG:  Solving for p_rgh, Initial residual = 0.036671399, Final residual = 0.00017481974, No Iterations 2
time step continuity errors : sum local = 5.8881012e-06, global = 1.2642609e-06, cumulative = 3.1054292e-05
ExecutionTime = 0.76 s  ClockTime = 0 s
Inflow      : -5.8070466e-06 [kg/s]
Outflow     : -5.8059922e-06 [kg/s]
EnergyInflow  : -1.7157628 [W]
EnergyOutflow : -1.7154602 [W]
rho max/avg/min : 1.2016452 1.2015356 1.2014306
T   max/avg/min : 293.72295 293.70144 293.7
P   max/avg/min : 101324.91 101316.16 101307.41
Prg max/avg/min : 101325 101325 101325
U   max/avg/min : 0 -0.0024335721 -0.01112612
 

Iteration Number = 22

DILUPBiCG:  Solving for Ux, Initial residual = 0.12895325, Final residual = 0.00095486157, No Iterations 1
DILUPBiCG:  Solving for Uy, Initial residual = 0.0010070218, Final residual = 8.5418228e-06, No Iterations 1
DILUPBiCG:  Solving for Uz, Initial residual = 0.01345107, Final residual = 4.5533145e-05, No Iterations 1
DILUPBiCG:  Solving for h, Initial residual = 0.024076085, Final residual = 0.00018505706, No Iterations 3
GAMG:  Solving for p_rgh, Initial residual = 0.036694213, Final residual = 0.00016710912, No Iterations 2
time step continuity errors : sum local = 5.5713447e-06, global = 9.2376641e-07, cumulative = 3.1978059e-05
ExecutionTime = 0.79 s  ClockTime = 0 s
Inflow      : -5.9800398e-06 [kg/s]
Outflow     : -5.9792694e-06 [kg/s]
EnergyInflow  : -1.7668757 [W]
EnergyOutflow : -1.7666578 [W]
rho max/avg/min : 1.2016452 1.2015352 1.2014303
T   max/avg/min : 293.725 293.70153 293.7
P   max/avg/min : 101324.91 101316.16 101307.41
Prg max/avg/min : 101325 101325 101325
U   max/avg/min : 0 -0.0025159846 -0.011426407
 

Iteration Number = 23

DILUPBiCG:  Solving for Ux, Initial residual = 0.12513764, Final residual = 0.00094355426, No Iterations 1
DILUPBiCG:  Solving for Uy, Initial residual = 0.0010491697, Final residual = 9.1962118e-06, No Iterations 1
DILUPBiCG:  Solving for Uz, Initial residual = 0.012881359, Final residual = 4.3638802e-05, No Iterations 1
DILUPBiCG:  Solving for h, Initial residual = 0.022844009, Final residual = 0.00017124394, No Iterations 3
GAMG:  Solving for p_rgh, Initial residual = 0.035218324, Final residual = 0.00012460398, No Iterations 2
time step continuity errors : sum local = 4.1128e-06, global = 6.3568373e-07, cumulative = 3.2613743e-05
ExecutionTime = 0.84 s  ClockTime = 0 s
Inflow      : -6.1496781e-06 [kg/s]
Outflow     : -6.1491479e-06 [kg/s]
EnergyInflow  : -1.8169974 [W]
EnergyOutflow : -1.8168511 [W]
rho max/avg/min : 1.2016452 1.2015349 1.20143
T   max/avg/min : 293.7271 293.70161 293.7
P   max/avg/min : 101324.91 101316.16 101307.41
Prg max/avg/min : 101325 101325 101325
U   max/avg/min : 0 -0.0025972838 -0.011720943
 

Iteration Number = 24

DILUPBiCG:  Solving for Ux, Initial residual = 0.11906274, Final residual = 0.0008878224, No Iterations 1
DILUPBiCG:  Solving for Uy, Initial residual = 0.0010226016, Final residual = 9.0738713e-06, No Iterations 1
DILUPBiCG:  Solving for Uz, Initial residual = 0.01236021, Final residual = 4.1891583e-05, No Iterations 1
DILUPBiCG:  Solving for h, Initial residual = 0.021702991, Final residual = 0.00015953804, No Iterations 3
GAMG:  Solving for p_rgh, Initial residual = 0.034449619, Final residual = 0.00014656705, No Iterations 2
time step continuity errors : sum local = 4.7732978e-06, global = 2.3564057e-07, cumulative = 3.2849383e-05
ExecutionTime = 0.88 s  ClockTime = 0 s
Inflow      : -6.3160237e-06 [kg/s]
Outflow     : -6.3158272e-06 [kg/s]
EnergyInflow  : -1.8661463 [W]
EnergyOutflow : -1.8660992 [W]
rho max/avg/min : 1.2016452 1.2015345 1.2014297
T   max/avg/min : 293.72926 293.7017 293.7
P   max/avg/min : 101324.91 101316.16 101307.41
Prg max/avg/min : 101325 101325 101325
U   max/avg/min : 0 -0.0026775285 -0.01200878
 

Iteration Number = 25

DILUPBiCG:  Solving for Ux, Initial residual = 0.11745285, Final residual = 0.00088297384, No Iterations 1
DILUPBiCG:  Solving for Uy, Initial residual = 0.00098997156, Final residual = 5.2104963e-07, No Iterations 2
DILUPBiCG:  Solving for Uz, Initial residual = 0.011881359, Final residual = 4.02659e-05, No Iterations 1
DILUPBiCG:  Solving for h, Initial residual = 0.020642612, Final residual = 0.00014966067, No Iterations 3
GAMG:  Solving for p_rgh, Initial residual = 0.034569068, Final residual = 0.00013510585, No Iterations 2
time step continuity errors : sum local = 4.3488998e-06, global = -7.3348795e-08, cumulative = 3.2776034e-05
ExecutionTime = 0.91 s  ClockTime = 1 s
Inflow      : -6.4794285e-06 [kg/s]
Outflow     : -6.4794897e-06 [kg/s]
EnergyInflow  : -1.9144262 [W]
EnergyOutflow : -1.914456 [W]
rho max/avg/min : 1.2016452 1.2015342 1.2014295
T   max/avg/min : 293.73145 293.70178 293.7
P   max/avg/min : 101324.91 101316.16 101307.41
Prg max/avg/min : 101325 101325 101325
U   max/avg/min : 0 -0.0027567745 -0.012291439
 

Iteration Number = 26

DILUPBiCG:  Solving for Ux, Initial residual = 0.11294722, Final residual = 0.00085983084, No Iterations 1
DILUPBiCG:  Solving for Uy, Initial residual = 0.0010164697, Final residual = 9.781353e-06, No Iterations 1
DILUPBiCG:  Solving for Uz, Initial residual = 0.011440248, Final residual = 3.8757139e-05, No Iterations 1
DILUPBiCG:  Solving for h, Initial residual = 0.019656014, Final residual = 0.00014098938, No Iterations 3
GAMG:  Solving for p_rgh, Initial residual = 0.033480976, Final residual = 0.00013263646, No Iterations 2
time step continuity errors : sum local = 4.2180326e-06, global = -3.454464e-07, cumulative = 3.2430588e-05
ExecutionTime = 0.95 s  ClockTime = 1 s
Inflow      : -6.6400102e-06 [kg/s]
Outflow     : -6.6402983e-06 [kg/s]
EnergyInflow  : -1.961872 [W]
EnergyOutflow : -1.9619696 [W]
rho max/avg/min : 1.2016452 1.2015338 1.2014292
T   max/avg/min : 293.73368 293.70186 293.7
P   max/avg/min : 101324.91 101316.16 101307.41
Prg max/avg/min : 101325 101325 101325
U   max/avg/min : 0 -0.0028350713 -0.012568348
 

Iteration Number = 27

DILUPBiCG:  Solving for Ux, Initial residual = 0.11047442, Final residual = 0.00084479858, No Iterations 1
DILUPBiCG:  Solving for Uy, Initial residual = 0.0011407144, Final residual = 2.9811062e-06, No Iterations 2
DILUPBiCG:  Solving for Uz, Initial residual = 0.011031944, Final residual = 3.7346777e-05, No Iterations 1
DILUPBiCG:  Solving for h, Initial residual = 0.018736245, Final residual = 0.00013322094, No Iterations 3
GAMG:  Solving for p_rgh, Initial residual = 0.032594485, Final residual = 0.00012055387, No Iterations 2
time step continuity errors : sum local = 3.7818246e-06, global = -5.2728238e-07, cumulative = 3.1903306e-05
ExecutionTime = 0.99 s  ClockTime = 1 s
Inflow      : -6.7979631e-06 [kg/s]
Outflow     : -6.7984029e-06 [kg/s]
EnergyInflow  : -2.0085411 [W]
EnergyOutflow : -2.0086843 [W]
rho max/avg/min : 1.2016452 1.2015335 1.2014289
T   max/avg/min : 293.73592 293.70194 293.70001
P   max/avg/min : 101324.91 101316.16 101307.41
Prg max/avg/min : 101325 101325 101325
U   max/avg/min : 0 -0.0029124628 -0.012840501
 

Iteration Number = 28

DILUPBiCG:  Solving for Ux, Initial residual = 0.10505945, Final residual = 0.00082073883, No Iterations 1
DILUPBiCG:  Solving for Uy, Initial residual = 0.0010884022, Final residual = 2.0205036e-07, No Iterations 2
DILUPBiCG:  Solving for Uz, Initial residual = 0.010652969, Final residual = 3.6049167e-05, No Iterations 1
DILUPBiCG:  Solving for h, Initial residual = 0.017879298, Final residual = 0.00012659934, No Iterations 3
GAMG:  Solving for p_rgh, Initial residual = 0.031918599, Final residual = 9.634111e-05, No Iterations 2
time step continuity errors : sum local = 2.99061e-06, global = -5.7959517e-07, cumulative = 3.132371e-05
ExecutionTime = 1.03 s  ClockTime = 1 s
Inflow      : -6.9534558e-06 [kg/s]
Outflow     : -6.9539392e-06 [kg/s]
EnergyInflow  : -2.0544834 [W]
EnergyOutflow : -2.0546402 [W]
rho max/avg/min : 1.2016452 1.2015332 1.2014286
T   max/avg/min : 293.73816 293.70202 293.70001
P   max/avg/min : 101324.91 101316.16 101307.41
Prg max/avg/min : 101325 101325 101325
U   max/avg/min : 0 -0.0029889895 -0.013107648
 

Iteration Number = 29

DILUPBiCG:  Solving for Ux, Initial residual = 0.10262699, Final residual = 0.00081511795, No Iterations 1
DILUPBiCG:  Solving for Uy, Initial residual = 0.0011172783, Final residual = 1.0022034e-05, No Iterations 1
DILUPBiCG:  Solving for Uz, Initial residual = 0.010300166, Final residual = 3.4883299e-05, No Iterations 1
DILUPBiCG:  Solving for h, Initial residual = 0.017080325, Final residual = 0.0001208406, No Iterations 3
GAMG:  Solving for p_rgh, Initial residual = 0.031186823, Final residual = 8.2489206e-05, No Iterations 2
time step continuity errors : sum local = 2.5400928e-06, global = -5.042099e-07, cumulative = 3.0819501e-05
ExecutionTime = 1.06 s  ClockTime = 1 s
Inflow      : -7.1066112e-06 [kg/s]
Outflow     : -7.1070317e-06 [kg/s]
EnergyInflow  : -2.099735 [W]
EnergyOutflow : -2.099874 [W]
rho max/avg/min : 1.2016452 1.2015329 1.2014283
T   max/avg/min : 293.7404 293.7021 293.70001
P   max/avg/min : 101324.91 101316.16 101307.41
Prg max/avg/min : 101325 101325 101325
U   max/avg/min : 0 -0.0030646908 -0.013368374
 

Iteration Number = 30

DILUPBiCG:  Solving for Ux, Initial residual = 0.099395987, Final residual = 0.00080020082, No Iterations 1
DILUPBiCG:  Solving for Uy, Initial residual = 0.0012281981, Final residual = 1.3342962e-07, No Iterations 2
DILUPBiCG:  Solving for Uz, Initial residual = 0.009971521, Final residual = 3.3821448e-05, No Iterations 1
DILUPBiCG:  Solving for h, Initial residual = 0.016336909, Final residual = 0.00011539042, No Iterations 3
GAMG:  Solving for p_rgh, Initial residual = 0.03082491, Final residual = 7.9313979e-05, No Iterations 2
time step continuity errors : sum local = 2.4117771e-06, global = -3.3784444e-07, cumulative = 3.0481656e-05
ExecutionTime = 1.11 s  ClockTime = 1 s
Inflow      : -7.2575142e-06 [kg/s]
Outflow     : -7.257796e-06 [kg/s]
EnergyInflow  : -2.1443211 [W]
EnergyOutflow : -2.1444199 [W]
rho max/avg/min : 1.2016452 1.2015325 1.201428
T   max/avg/min : 293.74263 293.70218 293.70001
P   max/avg/min : 101324.91 101316.16 101307.41
Prg max/avg/min : 101325 101325 101325
U   max/avg/min : 0 -0.0031395998 -0.013628597
 

Iteration Number = 31

DILUPBiCG:  Solving for Ux, Initial residual = 0.096587399, Final residual = 0.00075270085, No Iterations 1
DILUPBiCG:  Solving for Uy, Initial residual = 0.0011833057, Final residual = 1.0883153e-05, No Iterations 1
DILUPBiCG:  Solving for Uz, Initial residual = 0.0096635294, Final residual = 3.283701e-05, No Iterations 1
DILUPBiCG:  Solving for h, Initial residual = 0.015644636, Final residual = 0.00011015758, No Iterations 3
GAMG:  Solving for p_rgh, Initial residual = 0.029870089, Final residual = 6.6414794e-05, No Iterations 2
time step continuity errors : sum local = 2.0055043e-06, global = -5.706372e-08, cumulative = 3.0424592e-05
ExecutionTime = 1.15 s  ClockTime = 1 s
Inflow      : -7.406291e-06 [kg/s]
Outflow     : -7.4063386e-06 [kg/s]
EnergyInflow  : -2.188279 [W]
EnergyOutflow : -2.1883095 [W]
rho max/avg/min : 1.2016452 1.2015322 1.2014278
T   max/avg/min : 293.74485 293.70226 293.70001
P   max/avg/min : 101324.91 101316.16 101307.41
Prg max/avg/min : 101325 101325 101325
U   max/avg/min : 0 -0.003213743 -0.013883719
 

Iteration Number = 32

DILUPBiCG:  Solving for Ux, Initial residual = 0.10025509, Final residual = 0.00079523189, No Iterations 1
DILUPBiCG:  Solving for Uy, Initial residual = 0.0012212209, Final residual = 1.1800578e-05, No Iterations 1
DILUPBiCG:  Solving for Uz, Initial residual = 0.0093737072, Final residual = 3.1887727e-05, No Iterations 1
DILUPBiCG:  Solving for h, Initial residual = 0.01500197, Final residual = 0.0001052844, No Iterations 3
GAMG:  Solving for p_rgh, Initial residual = 0.031690297, Final residual = 7.614672e-05, No Iterations 2
time step continuity errors : sum local = 2.2717309e-06, global = 1.8512238e-07, cumulative = 3.0609715e-05
ExecutionTime = 1.19 s  ClockTime = 1 s
Inflow      : -7.5529124e-06 [kg/s]
Outflow     : -7.552758e-06 [kg/s]
EnergyInflow  : -2.2316001 [W]
EnergyOutflow : -2.2315717 [W]
rho max/avg/min : 1.2016452 1.2015319 1.2014275
T   max/avg/min : 293.74702 293.70233 293.70001
P   max/avg/min : 101324.91 101316.16 101307.41
Prg max/avg/min : 101325 101325 101325
U   max/avg/min : 0 -0.0032871448 -0.014135088
 

Iteration Number = 33

DILUPBiCG:  Solving for Ux, Initial residual = 0.09482757, Final residual = 0.00075452438, No Iterations 1
DILUPBiCG:  Solving for Uy, Initial residual = 0.0012225434, Final residual = 1.1444802e-05, No Iterations 1
DILUPBiCG:  Solving for Uz, Initial residual = 0.0091011332, Final residual = 3.0988854e-05, No Iterations 1
DILUPBiCG:  Solving for h, Initial residual = 0.014404217, Final residual = 0.00010067856, No Iterations 3
GAMG:  Solving for p_rgh, Initial residual = 0.031000401, Final residual = 6.7097229e-05, No Iterations 2
time step continuity errors : sum local = 1.9835764e-06, global = 6.0895617e-07, cumulative = 3.1218671e-05
ExecutionTime = 1.22 s  ClockTime = 1 s
Inflow      : -7.6976538e-06 [kg/s]
Outflow     : -7.697146e-06 [kg/s]
EnergyInflow  : -2.2743657 [W]
EnergyOutflow : -2.2742337 [W]
rho max/avg/min : 1.2016451 1.2015316 1.2014272
T   max/avg/min : 293.74915 293.7024 293.70001
P   max/avg/min : 101324.91 101316.16 101307.41
Prg max/avg/min : 101325 101325 101325
U   max/avg/min : 0 -0.0033598215 -0.014382484
 

Iteration Number = 34

DILUPBiCG:  Solving for Ux, Initial residual = 0.090074808, Final residual = 0.00072077489, No Iterations 1
DILUPBiCG:  Solving for Uy, Initial residual = 0.0011709878, Final residual = 1.0956474e-05, No Iterations 1
DILUPBiCG:  Solving for Uz, Initial residual = 0.0088424706, Final residual = 3.0158672e-05, No Iterations 1
DILUPBiCG:  Solving for h, Initial residual = 0.013850175, Final residual = 9.6342167e-05, No Iterations 3
GAMG:  Solving for p_rgh, Initial residual = 0.030062132, Final residual = 5.2511859e-05, No Iterations 2
time step continuity errors : sum local = 1.5386391e-06, global = 1.0985399e-06, cumulative = 3.2317211e-05
ExecutionTime = 1.26 s  ClockTime = 1 s
Inflow      : -7.8405022e-06 [kg/s]
Outflow     : -7.839586e-06 [kg/s]
EnergyInflow  : -2.316572 [W]
EnergyOutflow : -2.3163202 [W]
rho max/avg/min : 1.2016451 1.2015313 1.2014269
T   max/avg/min : 293.75129 293.70248 293.70002
P   max/avg/min : 101324.91 101316.16 101307.41
Prg max/avg/min : 101325 101325 101325
U   max/avg/min : 0 -0.0034317617 -0.014624637
 

Iteration Number = 35

DILUPBiCG:  Solving for Ux, Initial residual = 0.090151648, Final residual = 0.00071554396, No Iterations 1
DILUPBiCG:  Solving for Uy, Initial residual = 0.0013150053, Final residual = 1.2116485e-05, No Iterations 1
DILUPBiCG:  Solving for Uz, Initial residual = 0.0085928693, Final residual = 2.9309115e-05, No Iterations 1
DILUPBiCG:  Solving for h, Initial residual = 0.013336921, Final residual = 9.2377134e-05, No Iterations 3
GAMG:  Solving for p_rgh, Initial residual = 0.030664918, Final residual = 5.9743057e-05, No Iterations 2
time step continuity errors : sum local = 1.7264818e-06, global = 6.867765e-07, cumulative = 3.3003987e-05
ExecutionTime = 1.3 s  ClockTime = 1 s
Inflow      : -7.9807284e-06 [kg/s]
Outflow     : -7.9801556e-06 [kg/s]
EnergyInflow  : -2.3580036 [W]
EnergyOutflow : -2.357854 [W]
rho max/avg/min : 1.2016451 1.201531 1.2014266
T   max/avg/min : 293.75329 293.70255 293.70002
P   max/avg/min : 101324.91 101316.16 101307.41
Prg max/avg/min : 101325 101325 101325
U   max/avg/min : 0 -0.0035030149 -0.014864376
 

Iteration Number = 36

DILUPBiCG:  Solving for Ux, Initial residual = 0.090339143, Final residual = 0.00074112643, No Iterations 1
DILUPBiCG:  Solving for Uy, Initial residual = 0.0013003114, Final residual = 1.2090777e-05, No Iterations 1
DILUPBiCG:  Solving for Uz, Initial residual = 0.0083639648, Final residual = 2.8567611e-05, No Iterations 1
DILUPBiCG:  Solving for h, Initial residual = 0.012859988, Final residual = 8.8600381e-05, No Iterations 3
GAMG:  Solving for p_rgh, Initial residual = 0.030359964, Final residual = 6.1211251e-05, No Iterations 2
time step continuity errors : sum local = 1.7510373e-06, global = 4.0429245e-07, cumulative = 3.340828e-05
ExecutionTime = 1.34 s  ClockTime = 1 s
Inflow      : -8.1192693e-06 [kg/s]
Outflow     : -8.1189321e-06 [kg/s]
EnergyInflow  : -2.3989372 [W]
EnergyOutflow : -2.3988581 [W]
rho max/avg/min : 1.2016451 1.2015307 1.201419
T   max/avg/min : 293.75531 293.70262 293.70002
P   max/avg/min : 101324.91 101316.16 101307.41
Prg max/avg/min : 101325 101325 101325
U   max/avg/min : 0 -0.0035736397 -0.015100695
 

Iteration Number = 37

DILUPBiCG:  Solving for Ux, Initial residual = 0.090563365, Final residual = 0.00072484958, No Iterations 1
DILUPBiCG:  Solving for Uy, Initial residual = 0.001200963, Final residual = 1.1089514e-05, No Iterations 1
DILUPBiCG:  Solving for Uz, Initial residual = 0.0081501438, Final residual = 2.786333e-05, No Iterations 1
DILUPBiCG:  Solving for h, Initial residual = 0.012421245, Final residual = 8.5156854e-05, No Iterations 3
GAMG:  Solving for p_rgh, Initial residual = 0.030330266, Final residual = 7.8767668e-05, No Iterations 2
time step continuity errors : sum local = 2.230396e-06, global = 2.3365085e-07, cumulative = 3.3641931e-05
ExecutionTime = 1.38 s  ClockTime = 1 s
Inflow      : -8.2561801e-06 [kg/s]
Outflow     : -8.2559853e-06 [kg/s]
EnergyInflow  : -2.4393891 [W]
EnergyOutflow : -2.439353 [W]
rho max/avg/min : 1.2016451 1.2015305 1.201411
T   max/avg/min : 293.75726 293.70269 293.70002
P   max/avg/min : 101324.91 101316.16 101307.41
Prg max/avg/min : 101325 101325 101325
U   max/avg/min : 0 -0.0036436642 -0.015335038
 

Iteration Number = 38

DILUPBiCG:  Solving for Ux, Initial residual = 0.084845525, Final residual = 0.00068187049, No Iterations 1
DILUPBiCG:  Solving for Uy, Initial residual = 0.0012351407, Final residual = 1.1489776e-05, No Iterations 1
DILUPBiCG:  Solving for Uz, Initial residual = 0.0079476241, Final residual = 2.7211878e-05, No Iterations 1
DILUPBiCG:  Solving for h, Initial residual = 0.012016617, Final residual = 8.1957338e-05, No Iterations 3
GAMG:  Solving for p_rgh, Initial residual = 0.029155384, Final residual = 6.5314353e-05, No Iterations 2
time step continuity errors : sum local = 1.8324887e-06, global = 4.2400827e-07, cumulative = 3.4065939e-05
ExecutionTime = 1.42 s  ClockTime = 1 s
Inflow      : -8.3917328e-06 [kg/s]
Outflow     : -8.3913792e-06 [kg/s]
EnergyInflow  : -2.4794398 [W]
EnergyOutflow : -2.4793577 [W]
rho max/avg/min : 1.201645 1.2015302 1.2014034
T   max/avg/min : 293.75913 293.70276 293.70002
P   max/avg/min : 101324.91 101316.16 101307.41
Prg max/avg/min : 101325 101325 101325
U   max/avg/min : 0 -0.0037131016 -0.015564938
 

Iteration Number = 39

DILUPBiCG:  Solving for Ux, Initial residual = 0.082840546, Final residual = 0.00068294343, No Iterations 1
DILUPBiCG:  Solving for Uy, Initial residual = 0.0013443153, Final residual = 1.303458e-05, No Iterations 1
DILUPBiCG:  Solving for Uz, Initial residual = 0.0077541362, Final residual = 2.6610575e-05, No Iterations 1
DILUPBiCG:  Solving for h, Initial residual = 0.011643205, Final residual = 7.8932695e-05, No Iterations 3
GAMG:  Solving for p_rgh, Initial residual = 0.029475533, Final residual = 4.7027942e-05, No Iterations 2
time step continuity errors : sum local = 1.3132082e-06, global = 8.3774272e-07, cumulative = 3.4903682e-05
ExecutionTime = 1.46 s  ClockTime = 1 s
Inflow      : -8.5258722e-06 [kg/s]
Outflow     : -8.5251735e-06 [kg/s]
EnergyInflow  : -2.519073 [W]
EnergyOutflow : -2.5188898 [W]
rho max/avg/min : 1.201645 1.2015299 1.201396
T   max/avg/min : 293.76094 293.70283 293.70003
P   max/avg/min : 101324.91 101316.16 101307.41
Prg max/avg/min : 101325 101325 101325
U   max/avg/min : 0 -0.0037819469 -0.015791977
 

Iteration Number = 40

DILUPBiCG:  Solving for Ux, Initial residual = 0.078825826, Final residual = 0.00063118264, No Iterations 1
DILUPBiCG:  Solving for Uy, Initial residual = 0.0014024272, Final residual = 1.4171692e-07, No Iterations 2
DILUPBiCG:  Solving for Uz, Initial residual = 0.0075669025, Final residual = 2.605294e-05, No Iterations 1
DILUPBiCG:  Solving for h, Initial residual = 0.01129742, Final residual = 7.6053145e-05, No Iterations 3
GAMG:  Solving for p_rgh, Initial residual = 0.028602519, Final residual = 6.3317746e-05, No Iterations 2
time step continuity errors : sum local = 1.7420995e-06, global = 6.1190669e-07, cumulative = 3.5515588e-05
ExecutionTime = 1.5 s  ClockTime = 1 s
Inflow      : -8.6579333e-06 [kg/s]
Outflow     : -8.657423e-06 [kg/s]
EnergyInflow  : -2.558092 [W]
EnergyOutflow : -2.5579654 [W]
rho max/avg/min : 1.201645 1.2015296 1.2013884
T   max/avg/min : 293.76278 293.7029 293.70003
P   max/avg/min : 101324.91 101316.16 101307.41
Prg max/avg/min : 101325 101325 101325
U   max/avg/min : 0 -0.0038502321 -0.016016092
 

Iteration Number = 41

DILUPBiCG:  Solving for Ux, Initial residual = 0.078818434, Final residual = 0.00063959244, No Iterations 1
DILUPBiCG:  Solving for Uy, Initial residual = 0.0013897035, Final residual = 1.2592615e-05, No Iterations 1
DILUPBiCG:  Solving for Uz, Initial residual = 0.0073922856, Final residual = 2.5492791e-05, No Iterations 1
DILUPBiCG:  Solving for h, Initial residual = 0.010975875, Final residual = 7.3332895e-05, No Iterations 3
GAMG:  Solving for p_rgh, Initial residual = 0.027949059, Final residual = 4.942802e-05, No Iterations 2
time step continuity errors : sum local = 1.3482345e-06, global = 8.221094e-07, cumulative = 3.6337698e-05
ExecutionTime = 1.54 s  ClockTime = 1 s
Inflow      : -8.7888701e-06 [kg/s]
Outflow     : -8.7881845e-06 [kg/s]
EnergyInflow  : -2.5967789 [W]
EnergyOutflow : -2.5966014 [W]
rho max/avg/min : 1.2016449 1.2015293 1.2013816
T   max/avg/min : 293.76446 293.70296 293.70003
P   max/avg/min : 101324.91 101316.16 101307.41
Prg max/avg/min : 101325 101325 101325
U   max/avg/min : 0 -0.0039179657 -0.016236236
 

Iteration Number = 42

DILUPBiCG:  Solving for Ux, Initial residual = 0.071100077, Final residual = 0.00056421544, No Iterations 1
DILUPBiCG:  Solving for Uy, Initial residual = 0.0015062653, Final residual = 1.4034138e-05, No Iterations 1
DILUPBiCG:  Solving for Uz, Initial residual = 0.0072229483, Final residual = 2.4988799e-05, No Iterations 1
DILUPBiCG:  Solving for h, Initial residual = 0.010680705, Final residual = 7.0761102e-05, No Iterations 3
GAMG:  Solving for p_rgh, Initial residual = 0.02504142, Final residual = 4.4276609e-05, No Iterations 2
time step continuity errors : sum local = 1.1964419e-06, global = 6.0382046e-07, cumulative = 3.6941518e-05
ExecutionTime = 1.58 s  ClockTime = 1 s
Inflow      : -8.9180098e-06 [kg/s]
Outflow     : -8.9175062e-06 [kg/s]
EnergyInflow  : -2.6349348 [W]
EnergyOutflow : -2.6348121 [W]
rho max/avg/min : 1.2016449 1.2015291 1.2013743
T   max/avg/min : 293.76625 293.70303 293.70004
P   max/avg/min : 101324.91 101316.16 101307.41
Prg max/avg/min : 101325 101325 101325
U   max/avg/min : 0 -0.0039851747 -0.016455349
 

Iteration Number = 43

DILUPBiCG:  Solving for Ux, Initial residual = 0.067902665, Final residual = 0.00055048949, No Iterations 1
DILUPBiCG:  Solving for Uy, Initial residual = 0.0013300013, Final residual = 1.1972021e-05, No Iterations 1
DILUPBiCG:  Solving for Uz, Initial residual = 0.0070641927, Final residual = 2.4490366e-05, No Iterations 1
DILUPBiCG:  Solving for h, Initial residual = 0.010404892, Final residual = 6.8348797e-05, No Iterations 3
GAMG:  Solving for p_rgh, Initial residual = 0.023981418, Final residual = 4.9156164e-05, No Iterations 2
time step continuity errors : sum local = 1.3203846e-06, global = 4.1493037e-07, cumulative = 3.7356449e-05
ExecutionTime = 1.62 s  ClockTime = 1 s
Inflow      : -9.0457835e-06 [kg/s]
Outflow     : -9.0454374e-06 [kg/s]
EnergyInflow  : -2.6726871 [W]
EnergyOutflow : -2.6726119 [W]
rho max/avg/min : 1.2016448 1.2015288 1.2013672
T   max/avg/min : 293.76796 293.70309 293.70004
P   max/avg/min : 101324.91 101316.16 101307.41
Prg max/avg/min : 101325 101325 101325
U   max/avg/min : 0 -0.0040518899 -0.016671495
 

Iteration Number = 44

DILUPBiCG:  Solving for Ux, Initial residual = 0.067418285, Final residual = 0.00054136109, No Iterations 1
DILUPBiCG:  Solving for Uy, Initial residual = 0.0013361287, Final residual = 2.7905994e-07, No Iterations 2
DILUPBiCG:  Solving for Uz, Initial residual = 0.0069138143, Final residual = 2.4010549e-05, No Iterations 1
DILUPBiCG:  Solving for h, Initial residual = 0.010149941, Final residual = 6.6098727e-05, No Iterations 3
GAMG:  Solving for p_rgh, Initial residual = 0.024228631, Final residual = 4.7564154e-05, No Iterations 2
time step continuity errors : sum local = 1.269283e-06, global = 5.0474974e-07, cumulative = 3.7861198e-05
ExecutionTime = 1.66 s  ClockTime = 1 s
Inflow      : -9.1724449e-06 [kg/s]
Outflow     : -9.1720239e-06 [kg/s]
EnergyInflow  : -2.7101107 [W]
EnergyOutflow : -2.7100144 [W]
rho max/avg/min : 1.2016448 1.2015285 1.2013605
T   max/avg/min : 293.76962 293.70316 293.70004
P   max/avg/min : 101324.91 101316.16 101307.41
Prg max/avg/min : 101325 101325 101325
U   max/avg/min : 0 -0.0041181262 -0.016886167
 

Iteration Number = 45

DILUPBiCG:  Solving for Ux, Initial residual = 0.070807144, Final residual = 0.00056543931, No Iterations 1
DILUPBiCG:  Solving for Uy, Initial residual = 0.0013715993, Final residual = 1.2462922e-05, No Iterations 1
DILUPBiCG:  Solving for Uz, Initial residual = 0.0067695695, Final residual = 2.3550827e-05, No Iterations 1
DILUPBiCG:  Solving for h, Initial residual = 0.0099139441, Final residual = 6.4154624e-05, No Iterations 3
GAMG:  Solving for p_rgh, Initial residual = 0.026443855, Final residual = 4.6858563e-05, No Iterations 2
time step continuity errors : sum local = 1.2405837e-06, global = 6.2070301e-07, cumulative = 3.8481901e-05
ExecutionTime = 1.7 s  ClockTime = 1 s
Inflow      : -9.2978251e-06 [kg/s]
Outflow     : -9.2973075e-06 [kg/s]
EnergyInflow  : -2.7471559 [W]
EnergyOutflow : -2.7470319 [W]
rho max/avg/min : 1.2016447 1.2015283 1.2013539
T   max/avg/min : 293.77123 293.70322 293.70005
P   max/avg/min : 101324.91 101316.16 101307.41
Prg max/avg/min : 101325 101325 101325
U   max/avg/min : 0 -0.0041838895 -0.017098147
 

Iteration Number = 46

DILUPBiCG:  Solving for Ux, Initial residual = 0.07060126, Final residual = 0.00058921004, No Iterations 1
DILUPBiCG:  Solving for Uy, Initial residual = 0.0014029489, Final residual = 1.2876183e-05, No Iterations 1
DILUPBiCG:  Solving for Uz, Initial residual = 0.0066305056, Final residual = 2.3109485e-05, No Iterations 1
DILUPBiCG:  Solving for h, Initial residual = 0.0096937351, Final residual = 6.2320722e-05, No Iterations 3
GAMG:  Solving for p_rgh, Initial residual = 0.025500927, Final residual = 4.5593806e-05, No Iterations 2
time step continuity errors : sum local = 1.1923761e-06, global = 7.9748736e-07, cumulative = 3.9279389e-05
ExecutionTime = 1.72 s  ClockTime = 1 s
Inflow      : -9.4219935e-06 [kg/s]
Outflow     : -9.4213284e-06 [kg/s]
EnergyInflow  : -2.7838429 [W]
EnergyOutflow : -2.7836764 [W]
rho max/avg/min : 1.2016447 1.201528 1.2013474
T   max/avg/min : 293.77281 293.70329 293.70005
P   max/avg/min : 101324.91 101316.16 101307.41
Prg max/avg/min : 101325 101325 101325
U   max/avg/min : 0 -0.0042491766 -0.017306557
 

Iteration Number = 47

DILUPBiCG:  Solving for Ux, Initial residual = 0.061643153, Final residual = 0.00050921738, No Iterations 1
DILUPBiCG:  Solving for Uy, Initial residual = 0.0014638124, Final residual = 1.3406593e-05, No Iterations 1
DILUPBiCG:  Solving for Uz, Initial residual = 0.0064952802, Final residual = 2.2691371e-05, No Iterations 1
DILUPBiCG:  Solving for h, Initial residual = 0.009488584, Final residual = 6.059569e-05, No Iterations 3
GAMG:  Solving for p_rgh, Initial residual = 0.0242059, Final residual = 4.1659874e-05, No Iterations 2
time step continuity errors : sum local = 1.0869292e-06, global = 6.7889845e-07, cumulative = 3.9958287e-05
ExecutionTime = 1.76 s  ClockTime = 1 s
Inflow      : -9.5446909e-06 [kg/s]
Outflow     : -9.5441247e-06 [kg/s]
EnergyInflow  : -2.8200954 [W]
EnergyOutflow : -2.8199591 [W]
rho max/avg/min : 1.2016446 1.2015278 1.2013411
T   max/avg/min : 293.77436 293.70335 293.70006
P   max/avg/min : 101324.91 101316.16 101307.41
Prg max/avg/min : 101325 101325 101325
U   max/avg/min : 0 -0.0043140047 -0.017512425
 

Iteration Number = 48

DILUPBiCG:  Solving for Ux, Initial residual = 0.058238597, Final residual = 0.00049209311, No Iterations 1
DILUPBiCG:  Solving for Uy, Initial residual = 0.0013226046, Final residual = 1.2834275e-05, No Iterations 1
DILUPBiCG:  Solving for Uz, Initial residual = 0.0063670167, Final residual = 2.2306021e-05, No Iterations 1
DILUPBiCG:  Solving for h, Initial residual = 0.0092961986, Final residual = 5.894699e-05, No Iterations 3
GAMG:  Solving for p_rgh, Initial residual = 0.023387177, Final residual = 4.2068427e-05, No Iterations 2
time step continuity errors : sum local = 1.0867661e-06, global = 4.9578666e-07, cumulative = 4.0454074e-05
ExecutionTime = 1.8 s  ClockTime = 1 s
Inflow      : -9.6661465e-06 [kg/s]
Outflow     : -9.665733e-06 [kg/s]
EnergyInflow  : -2.8559809 [W]
EnergyOutflow : -2.8558907 [W]
rho max/avg/min : 1.2016445 1.2015275 1.2013348
T   max/avg/min : 293.77589 293.70341 293.70006
P   max/avg/min : 101324.91 101316.16 101307.41
Prg max/avg/min : 101325 101325 101325
U   max/avg/min : 0 -0.0043784074 -0.01771531
 

Iteration Number = 49

DILUPBiCG:  Solving for Ux, Initial residual = 0.052157726, Final residual = 0.0004569914, No Iterations 1
DILUPBiCG:  Solving for Uy, Initial residual = 0.0014386022, Final residual = 1.3349665e-05, No Iterations 1
DILUPBiCG:  Solving for Uz, Initial residual = 0.0062464054, Final residual = 2.195097e-05, No Iterations 1
DILUPBiCG:  Solving for h, Initial residual = 0.0091160774, Final residual = 5.7385822e-05, No Iterations 3
GAMG:  Solving for p_rgh, Initial residual = 0.021480131, Final residual = 3.9388374e-05, No Iterations 2
time step continuity errors : sum local = 1.0129477e-06, global = 5.1897497e-07, cumulative = 4.0973049e-05
ExecutionTime = 1.83 s  ClockTime = 1 s
Inflow      : -9.7866216e-06 [kg/s]
Outflow     : -9.7861887e-06 [kg/s]
EnergyInflow  : -2.8915767 [W]
EnergyOutflow : -2.8914819 [W]
rho max/avg/min : 1.2016445 1.2015272 1.2013287
T   max/avg/min : 293.7774 293.70348 293.70006
P   max/avg/min : 101324.91 101316.16 101307.41
Prg max/avg/min : 101325 101325 101325
U   max/avg/min : 0 -0.0044424012 -0.017918356
 

Iteration Number = 50

DILUPBiCG:  Solving for Ux, Initial residual = 0.051086241, Final residual = 0.00042953119, No Iterations 1
DILUPBiCG:  Solving for Uy, Initial residual = 0.0015101997, Final residual = 1.3903365e-05, No Iterations 1
DILUPBiCG:  Solving for Uz, Initial residual = 0.0061301169, Final residual = 2.1613651e-05, No Iterations 1
DILUPBiCG:  Solving for h, Initial residual = 0.0089477656, Final residual = 5.5910132e-05, No Iterations 3
GAMG:  Solving for p_rgh, Initial residual = 0.021126796, Final residual = 4.9534204e-05, No Iterations 2
time step continuity errors : sum local = 1.265485e-06, global = 4.8505294e-07, cumulative = 4.1458102e-05
ExecutionTime = 1.87 s  ClockTime = 1 s
Inflow      : -9.9059292e-06 [kg/s]
Outflow     : -9.9055246e-06 [kg/s]
EnergyInflow  : -2.9268276 [W]
EnergyOutflow : -2.9267422 [W]
rho max/avg/min : 1.2016444 1.201527 1.2013226
T   max/avg/min : 293.77889 293.70354 293.70007
P   max/avg/min : 101324.91 101316.16 101307.41
Prg max/avg/min : 101325 101325 101325
U   max/avg/min : 0 -0.0045059902 -0.018119626
 

Iteration Number = 51

DILUPBiCG:  Solving for Ux, Initial residual = 0.051298208, Final residual = 0.00042359526, No Iterations 1
DILUPBiCG:  Solving for Uy, Initial residual = 0.0014746546, Final residual = 1.4405248e-05, No Iterations 1
DILUPBiCG:  Solving for Uz, Initial residual = 0.0060175824, Final residual = 2.1285853e-05, No Iterations 1
DILUPBiCG:  Solving for h, Initial residual = 0.008789544, Final residual = 5.4500052e-05, No Iterations 3
GAMG:  Solving for p_rgh, Initial residual = 0.021665744, Final residual = 4.1620602e-05, No Iterations 2
time step continuity errors : sum local = 1.0620907e-06, global = 6.2437942e-07, cumulative = 4.2082481e-05
ExecutionTime = 1.91 s  ClockTime = 2 s
Inflow      : -1.0024293e-05 [kg/s]
Outflow     : -1.0023772e-05 [kg/s]
EnergyInflow  : -2.9617997 [W]
EnergyOutflow : -2.961681 [W]
rho max/avg/min : 1.2016443 1.2015267 1.2013165
T   max/avg/min : 293.78036 293.7036 293.70007
P   max/avg/min : 101324.91 101316.16 101307.41
Prg max/avg/min : 101325 101325 101325
U   max/avg/min : 0 -0.004569176 -0.018318225
 

Iteration Number = 52

DILUPBiCG:  Solving for Ux, Initial residual = 0.047653744, Final residual = 0.00039835602, No Iterations 1
DILUPBiCG:  Solving for Uy, Initial residual = 0.0014670696, Final residual = 1.5665522e-07, No Iterations 2
DILUPBiCG:  Solving for Uz, Initial residual = 0.005908259, Final residual = 2.0968082e-05, No Iterations 1
DILUPBiCG:  Solving for h, Initial residual = 0.0086410736, Final residual = 5.3173949e-05, No Iterations 3
GAMG:  Solving for p_rgh, Initial residual = 0.020679041, Final residual = 3.9130172e-05, No Iterations 2
time step continuity errors : sum local = 9.9145454e-07, global = 7.1665703e-07, cumulative = 4.2799138e-05
ExecutionTime = 1.95 s  ClockTime = 2 s
Inflow      : -1.0141559e-05 [kg/s]
Outflow     : -1.0140961e-05 [kg/s]
EnergyInflow  : -2.9964473 [W]
EnergyOutflow : -2.9963069 [W]
rho max/avg/min : 1.2016442 1.2015265 1.2013106
T   max/avg/min : 293.78182 293.70366 293.70008
P   max/avg/min : 101324.91 101316.16 101307.41
Prg max/avg/min : 101325 101325 101325
U   max/avg/min : 0 -0.004631958 -0.018513962
 

Iteration Number = 53

DILUPBiCG:  Solving for Ux, Initial residual = 0.044652428, Final residual = 0.00037160724, No Iterations 1
DILUPBiCG:  Solving for Uy, Initial residual = 0.0015136951, Final residual = 1.4064225e-05, No Iterations 1
DILUPBiCG:  Solving for Uz, Initial residual = 0.005801966, Final residual = 2.0658689e-05, No Iterations 1
DILUPBiCG:  Solving for h, Initial residual = 0.008500766, Final residual = 5.1933909e-05, No Iterations 3
GAMG:  Solving for p_rgh, Initial residual = 0.02006628, Final residual = 4.2730755e-05, No Iterations 2
time step continuity errors : sum local = 1.0786148e-06, global = 4.8442602e-07, cumulative = 4.3283564e-05
ExecutionTime = 1.98 s  ClockTime = 2 s
Inflow      : -1.0257523e-05 [kg/s]
Outflow     : -1.0257119e-05 [kg/s]
EnergyInflow  : -3.0307104 [W]
EnergyOutflow : -3.0306283 [W]
rho max/avg/min : 1.2016441 1.2015262 1.2013047
T   max/avg/min : 293.78326 293.70372 293.70009
P   max/avg/min : 101324.91 101316.16 101307.41
Prg max/avg/min : 101325 101325 101325
U   max/avg/min : 0 -0.0046943618 -0.018707887
 

Iteration Number = 54

DILUPBiCG:  Solving for Ux, Initial residual = 0.043709443, Final residual = 0.00038943738, No Iterations 1
DILUPBiCG:  Solving for Uy, Initial residual = 0.0013093114, Final residual = 1.2520428e-05, No Iterations 1
DILUPBiCG:  Solving for Uz, Initial residual = 0.0057020676, Final residual = 2.0361879e-05, No Iterations 1
DILUPBiCG:  Solving for h, Initial residual = 0.008367373, Final residual = 5.0778258e-05, No Iterations 3
GAMG:  Solving for p_rgh, Initial residual = 0.019984981, Final residual = 3.9632745e-05, No Iterations 2
time step continuity errors : sum local = 9.9078428e-07, global = 4.3024973e-07, cumulative = 4.3713814e-05
ExecutionTime = 2.02 s  ClockTime = 2 s
Inflow      : -1.0372634e-05 [kg/s]
Outflow     : -1.0372276e-05 [kg/s]
EnergyInflow  : -3.0647214 [W]
EnergyOutflow : -3.0646537 [W]
rho max/avg/min : 1.201644 1.201526 1.2012988
T   max/avg/min : 293.7847 293.70378 293.70009
P   max/avg/min : 101324.91 101316.16 101307.41
Prg max/avg/min : 101325 101325 101325
U   max/avg/min : 0 -0.0047564051 -0.018899262
 

Iteration Number = 55

DILUPBiCG:  Solving for Ux, Initial residual = 0.044281844, Final residual = 0.00037294046, No Iterations 1
DILUPBiCG:  Solving for Uy, Initial residual = 0.0012565798, Final residual = 1.0807979e-05, No Iterations 1
DILUPBiCG:  Solving for Uz, Initial residual = 0.0056057796, Final residual = 2.0076389e-05, No Iterations 1
DILUPBiCG:  Solving for h, Initial residual = 0.0082419349, Final residual = 4.975078e-05, No Iterations 3
GAMG:  Solving for p_rgh, Initial residual = 0.020839363, Final residual = 4.4080617e-05, No Iterations 2
time step continuity errors : sum local = 1.0947777e-06, global = 3.6396912e-07, cumulative = 4.4077783e-05
ExecutionTime = 2.06 s  ClockTime = 2 s
Inflow      : -1.0486758e-05 [kg/s]
Outflow     : -1.0486455e-05 [kg/s]
EnergyInflow  : -3.0984407 [W]
EnergyOutflow : -3.0983905 [W]
rho max/avg/min : 1.2016439 1.2015257 1.201293
T   max/avg/min : 293.78612 293.70384 293.7001
P   max/avg/min : 101324.91 101316.16 101307.41
Prg max/avg/min : 101325 101325 101325
U   max/avg/min : 0 -0.0048180973 -0.019089473
 

Iteration Number = 56

DILUPBiCG:  Solving for Ux, Initial residual = 0.042876301, Final residual = 0.00036227874, No Iterations 1
DILUPBiCG:  Solving for Uy, Initial residual = 0.0014057608, Final residual = 1.2775551e-05, No Iterations 1
DILUPBiCG:  Solving for Uz, Initial residual = 0.0055129137, Final residual = 1.9800105e-05, No Iterations 1
DILUPBiCG:  Solving for h, Initial residual = 0.0081231885, Final residual = 4.8864958e-05, No Iterations 3
GAMG:  Solving for p_rgh, Initial residual = 0.019422623, Final residual = 4.4933321e-05, No Iterations 2
time step continuity errors : sum local = 1.1090566e-06, global = 4.164445e-07, cumulative = 4.4494228e-05
ExecutionTime = 2.09 s  ClockTime = 2 s
Inflow      : -1.060003e-05 [kg/s]
Outflow     : -1.0599683e-05 [kg/s]
EnergyInflow  : -3.1319082 [W]
EnergyOutflow : -3.1318461 [W]
rho max/avg/min : 1.2016437 1.2015255 1.2012872
T   max/avg/min : 293.78753 293.7039 293.7001
P   max/avg/min : 101324.91 101316.16 101307.41
Prg max/avg/min : 101325 101325 101325
U   max/avg/min : 0 -0.0048794458 -0.019279796
 

Iteration Number = 57

DILUPBiCG:  Solving for Ux, Initial residual = 0.039518815, Final residual = 0.00032044045, No Iterations 1
DILUPBiCG:  Solving for Uy, Initial residual = 0.0013025615, Final residual = 1.2193926e-07, No Iterations 2
DILUPBiCG:  Solving for Uz, Initial residual = 0.0054230799, Final residual = 1.953329e-05, No Iterations 1
DILUPBiCG:  Solving for h, Initial residual = 0.0080108113, Final residual = 4.8030053e-05, No Iterations 3
GAMG:  Solving for p_rgh, Initial residual = 0.017655156, Final residual = 3.8476586e-05, No Iterations 2
time step continuity errors : sum local = 9.4927433e-07, global = 5.9462479e-07, cumulative = 4.5088852e-05
ExecutionTime = 2.13 s  ClockTime = 2 s
Inflow      : -1.0712479e-05 [kg/s]
Outflow     : -1.0711983e-05 [kg/s]
EnergyInflow  : -3.1651326 [W]
EnergyOutflow : -3.1650278 [W]
rho max/avg/min : 1.2016436 1.2015252 1.2012815
T   max/avg/min : 293.78893 293.70396 293.70011
P   max/avg/min : 101324.91 101316.16 101307.41
Prg max/avg/min : 101325 101325 101325
U   max/avg/min : 0 -0.0049404458 -0.019467682
 

Iteration Number = 58

DILUPBiCG:  Solving for Ux, Initial residual = 0.034077546, Final residual = 0.00029294478, No Iterations 1
DILUPBiCG:  Solving for Uy, Initial residual = 0.0013467637, Final residual = 1.251762e-05, No Iterations 1
DILUPBiCG:  Solving for Uz, Initial residual = 0.0053345796, Final residual = 1.9273864e-05, No Iterations 1
DILUPBiCG:  Solving for h, Initial residual = 0.0079042113, Final residual = 4.7235003e-05, No Iterations 3
GAMG:  Solving for p_rgh, Initial residual = 0.01591442, Final residual = 3.5810961e-05, No Iterations 2
time step continuity errors : sum local = 8.709238e-07, global = 5.8413544e-07, cumulative = 4.5672988e-05
ExecutionTime = 2.17 s  ClockTime = 2 s
Inflow      : -1.0823865e-05 [kg/s]
Outflow     : -1.0823378e-05 [kg/s]
EnergyInflow  : -3.1980431 [W]
EnergyOutflow : -3.197942 [W]
rho max/avg/min : 1.2016434 1.201525 1.2012758
T   max/avg/min : 293.79032 293.70402 293.70012
P   max/avg/min : 101324.91 101316.16 101307.41
Prg max/avg/min : 101325 101325 101325
U   max/avg/min : 0 -0.0050011015 -0.019653521
 

Iteration Number = 59

DILUPBiCG:  Solving for Ux, Initial residual = 0.03209561, Final residual = 0.00027956567, No Iterations 1
DILUPBiCG:  Solving for Uy, Initial residual = 0.0012636318, Final residual = 1.1363055e-05, No Iterations 1
DILUPBiCG:  Solving for Uz, Initial residual = 0.005249246, Final residual = 1.9026576e-05, No Iterations 1
DILUPBiCG:  Solving for h, Initial residual = 0.0078020255, Final residual = 4.6467965e-05, No Iterations 3
GAMG:  Solving for p_rgh, Initial residual = 0.01569556, Final residual = 4.2183109e-05, No Iterations 2
time step continuity errors : sum local = 1.0275756e-06, global = 3.335344e-07, cumulative = 4.6006522e-05
ExecutionTime = 2.2 s  ClockTime = 2 s
Inflow      : -1.0934168e-05 [kg/s]
Outflow     : -1.093389e-05 [kg/s]
EnergyInflow  : -3.2306334 [W]
EnergyOutflow : -3.2305952 [W]
rho max/avg/min : 1.2016433 1.2015247 1.2012701
T   max/avg/min : 293.79171 293.70408 293.70012
P   max/avg/min : 101324.91 101316.16 101307.41
Prg max/avg/min : 101325 101325 101325
U   max/avg/min : 0 -0.0050614364 -0.019836964
 

Iteration Number = 60

DILUPBiCG:  Solving for Ux, Initial residual = 0.033657885, Final residual = 0.00027850364, No Iterations 1
DILUPBiCG:  Solving for Uy, Initial residual = 0.0013240988, Final residual = 1.1483327e-05, No Iterations 1
DILUPBiCG:  Solving for Uz, Initial residual = 0.0051686534, Final residual = 1.8797925e-05, No Iterations 1
DILUPBiCG:  Solving for h, Initial residual = 0.0077042342, Final residual = 4.5727978e-05, No Iterations 3
GAMG:  Solving for p_rgh, Initial residual = 0.016104454, Final residual = 3.9020732e-05, No Iterations 2
time step continuity errors : sum local = 9.4207525e-07, global = 2.8436852e-07, cumulative = 4.6290891e-05
ExecutionTime = 2.23 s  ClockTime = 2 s
Inflow      : -1.1043778e-05 [kg/s]
Outflow     : -1.1043541e-05 [kg/s]
EnergyInflow  : -3.263019 [W]
EnergyOutflow : -3.262994 [W]
rho max/avg/min : 1.2016431 1.2015245 1.2012645
T   max/avg/min : 293.79309 293.70414 293.70013
P   max/avg/min : 101324.91 101316.16 101307.41
Prg max/avg/min : 101325 101325 101325
U   max/avg/min : 0 -0.0051214629 -0.020018782
 

Iteration Number = 61

DILUPBiCG:  Solving for Ux, Initial residual = 0.032997321, Final residual = 0.00026898478, No Iterations 1
DILUPBiCG:  Solving for Uy, Initial residual = 0.0012984481, Final residual = 1.5359945e-06, No Iterations 2
DILUPBiCG:  Solving for Uz, Initial residual = 0.0050904031, Final residual = 1.8584176e-05, No Iterations 1
DILUPBiCG:  Solving for h, Initial residual = 0.007611629, Final residual = 4.5013994e-05, No Iterations 3
GAMG:  Solving for p_rgh, Initial residual = 0.01693392, Final residual = 3.891224e-05, No Iterations 2
time step continuity errors : sum local = 9.3531695e-07, global = 3.4972207e-07, cumulative = 4.6640613e-05
ExecutionTime = 2.27 s  ClockTime = 2 s
Inflow      : -1.1152642e-05 [kg/s]
Outflow     : -1.115235e-05 [kg/s]
EnergyInflow  : -3.2951841 [W]
EnergyOutflow : -3.2951442 [W]
rho max/avg/min : 1.201643 1.2015243 1.2012589
T   max/avg/min : 293.79446 293.7042 293.70014
P   max/avg/min : 101324.91 101316.16 101307.41
Prg max/avg/min : 101325 101325 101325
U   max/avg/min : 0 -0.0051811858 -0.020198251
 

Iteration Number = 62

DILUPBiCG:  Solving for Ux, Initial residual = 0.03281263, Final residual = 0.0002613857, No Iterations 1
DILUPBiCG:  Solving for Uy, Initial residual = 0.0012992261, Final residual = 1.1853055e-05, No Iterations 1
DILUPBiCG:  Solving for Uz, Initial residual = 0.0050145021, Final residual = 1.8379091e-05, No Iterations 1
DILUPBiCG:  Solving for h, Initial residual = 0.0075233421, Final residual = 4.4322119e-05, No Iterations 3
GAMG:  Solving for p_rgh, Initial residual = 0.017433178, Final residual = 3.5752969e-05, No Iterations 2
time step continuity errors : sum local = 8.5673324e-07, global = 4.3758314e-07, cumulative = 4.7078196e-05
ExecutionTime = 2.31 s  ClockTime = 2 s
Inflow      : -1.1260702e-05 [kg/s]
Outflow     : -1.1260338e-05 [kg/s]
EnergyInflow  : -3.3271119 [W]
EnergyOutflow : -3.3270515 [W]
rho max/avg/min : 1.2016428 1.201524 1.2012533
T   max/avg/min : 293.79583 293.70426 293.70014
P   max/avg/min : 101324.91 101316.16 101307.41
Prg max/avg/min : 101325 101325 101325
U   max/avg/min : 0 -0.0052406058 -0.020377953
 

Iteration Number = 63

DILUPBiCG:  Solving for Ux, Initial residual = 0.031819324, Final residual = 0.00025448629, No Iterations 1
DILUPBiCG:  Solving for Uy, Initial residual = 0.0014929591, Final residual = 1.4192028e-05, No Iterations 1
DILUPBiCG:  Solving for Uz, Initial residual = 0.0049402633, Final residual = 1.8177952e-05, No Iterations 1
DILUPBiCG:  Solving for h, Initial residual = 0.0074388512, Final residual = 4.3655266e-05, No Iterations 3
GAMG:  Solving for p_rgh, Initial residual = 0.016067379, Final residual = 3.6384653e-05, No Iterations 2
time step continuity errors : sum local = 8.6768669e-07, global = 4.1368937e-07, cumulative = 4.7491885e-05
ExecutionTime = 2.34 s  ClockTime = 2 s
Inflow      : -1.1367866e-05 [kg/s]
Outflow     : -1.1367521e-05 [kg/s]
EnergyInflow  : -3.3587748 [W]
EnergyOutflow : -3.3587215 [W]
rho max/avg/min : 1.2016426 1.2015238 1.2012477
T   max/avg/min : 293.79719 293.70432 293.70015
P   max/avg/min : 101324.91 101316.16 101307.41
Prg max/avg/min : 101325 101325 101325
U   max/avg/min : 0 -0.0052997276 -0.020556969
 

Iteration Number = 64

DILUPBiCG:  Solving for Ux, Initial residual = 0.028758537, Final residual = 0.00022867358, No Iterations 1
DILUPBiCG:  Solving for Uy, Initial residual = 0.0015864076, Final residual = 1.3904242e-05, No Iterations 1
DILUPBiCG:  Solving for Uz, Initial residual = 0.0048683534, Final residual = 1.7980501e-05, No Iterations 1
DILUPBiCG:  Solving for h, Initial residual = 0.0073575606, Final residual = 4.3008862e-05, No Iterations 3
GAMG:  Solving for p_rgh, Initial residual = 0.013914769, Final residual = 3.5397668e-05, No Iterations 2
time step continuity errors : sum local = 8.4200448e-07, global = 3.5696586e-07, cumulative = 4.7848851e-05
ExecutionTime = 2.37 s  ClockTime = 2 s
Inflow      : -1.1474218e-05 [kg/s]
Outflow     : -1.147392e-05 [kg/s]
EnergyInflow  : -3.3901977 [W]
EnergyOutflow : -3.3901595 [W]
rho max/avg/min : 1.2016424 1.2015235 1.2012422
T   max/avg/min : 293.79854 293.70438 293.70016
P   max/avg/min : 101324.91 101316.16 101307.41
Prg max/avg/min : 101325 101325 101325
U   max/avg/min : 0 -0.0053585606 -0.020733458
 

Iteration Number = 65

DILUPBiCG:  Solving for Ux, Initial residual = 0.029374144, Final residual = 0.00023440211, No Iterations 1
DILUPBiCG:  Solving for Uy, Initial residual = 0.0016488143, Final residual = 1.4756291e-05, No Iterations 1
DILUPBiCG:  Solving for Uz, Initial residual = 0.0047989274, Final residual = 1.7788787e-05, No Iterations 1
DILUPBiCG:  Solving for h, Initial residual = 0.0072795805, Final residual = 4.2385654e-05, No Iterations 3
GAMG:  Solving for p_rgh, Initial residual = 0.015607752, Final residual = 3.5814482e-05, No Iterations 2
time step continuity errors : sum local = 8.4928282e-07, global = 3.2584757e-07, cumulative = 4.8174699e-05
ExecutionTime = 2.41 s  ClockTime = 2 s
Inflow      : -1.1579823e-05 [kg/s]
Outflow     : -1.1579551e-05 [kg/s]
EnergyInflow  : -3.4213999 [W]
EnergyOutflow : -3.4213706 [W]
rho max/avg/min : 1.2016422 1.2015233 1.2012367
T   max/avg/min : 293.7999 293.70444 293.70017
P   max/avg/min : 101324.91 101316.16 101307.41
Prg max/avg/min : 101325 101325 101325
U   max/avg/min : 0 -0.0054171128 -0.020908268
 

Iteration Number = 66

DILUPBiCG:  Solving for Ux, Initial residual = 0.027818085, Final residual = 0.00023152525, No Iterations 1
DILUPBiCG:  Solving for Uy, Initial residual = 0.0016592622, Final residual = 1.4325259e-05, No Iterations 1
DILUPBiCG:  Solving for Uz, Initial residual = 0.0047316571, Final residual = 1.7602985e-05, No Iterations 1
DILUPBiCG:  Solving for h, Initial residual = 0.0072047932, Final residual = 4.1780799e-05, No Iterations 3
GAMG:  Solving for p_rgh, Initial residual = 0.015958955, Final residual = 3.6433089e-05, No Iterations 2
time step continuity errors : sum local = 8.5806152e-07, global = 3.3061238e-07, cumulative = 4.8505311e-05
ExecutionTime = 2.45 s  ClockTime = 2 s
Inflow      : -1.1684707e-05 [kg/s]
Outflow     : -1.1684431e-05 [kg/s]
EnergyInflow  : -3.4523891 [W]
EnergyOutflow : -3.4523598 [W]
rho max/avg/min : 1.2016419 1.2015231 1.2012312
T   max/avg/min : 293.80124 293.7045 293.70018
P   max/avg/min : 101324.91 101316.16 101307.41
Prg max/avg/min : 101325 101325 101325
U   max/avg/min : 0 -0.0054753893 -0.02108094
 

Iteration Number = 67

DILUPBiCG:  Solving for Ux, Initial residual = 0.026233518, Final residual = 0.0002147398, No Iterations 1
DILUPBiCG:  Solving for Uy, Initial residual = 0.0015593949, Final residual = 1.4439857e-05, No Iterations 1
DILUPBiCG:  Solving for Uz, Initial residual = 0.0046662355, Final residual = 1.7422455e-05, No Iterations 1
DILUPBiCG:  Solving for h, Initial residual = 0.0071329854, Final residual = 4.1194267e-05, No Iterations 3
GAMG:  Solving for p_rgh, Initial residual = 0.014377547, Final residual = 3.8783822e-05, No Iterations 2
time step continuity errors : sum local = 9.0900421e-07, global = 2.8744805e-07, cumulative = 4.8792759e-05
ExecutionTime = 2.49 s  ClockTime = 2 s
Inflow      : -1.1788815e-05 [kg/s]
Outflow     : -1.1788575e-05 [kg/s]
EnergyInflow  : -3.4831493 [W]
EnergyOutflow : -3.4831319 [W]
rho max/avg/min : 1.2016417 1.2015228 1.2012257
T   max/avg/min : 293.80259 293.70456 293.70018
P   max/avg/min : 101324.91 101316.16 101307.41
Prg max/avg/min : 101325 101325 101325
U   max/avg/min : 0 -0.0055333962 -0.021252491
 

Iteration Number = 68

DILUPBiCG:  Solving for Ux, Initial residual = 0.024491828, Final residual = 0.00020006522, No Iterations 1
DILUPBiCG:  Solving for Uy, Initial residual = 0.0017537528, Final residual = 1.629287e-05, No Iterations 1
DILUPBiCG:  Solving for Uz, Initial residual = 0.0046027906, Final residual = 1.7246343e-05, No Iterations 1
DILUPBiCG:  Solving for h, Initial residual = 0.0070637304, Final residual = 4.0624788e-05, No Iterations 3
GAMG:  Solving for p_rgh, Initial residual = 0.013154723, Final residual = 3.497941e-05, No Iterations 2
time step continuity errors : sum local = 8.1497483e-07, global = 3.178664e-07, cumulative = 4.9110625e-05
ExecutionTime = 2.52 s  ClockTime = 2 s
Inflow      : -1.1892266e-05 [kg/s]
Outflow     : -1.1892001e-05 [kg/s]
EnergyInflow  : -3.513715 [W]
EnergyOutflow : -3.5136913 [W]
rho max/avg/min : 1.2016414 1.2015226 1.2012202
T   max/avg/min : 293.80393 293.70461 293.70019
P   max/avg/min : 101324.91 101316.16 101307.41
Prg max/avg/min : 101325 101325 101325
U   max/avg/min : 0 -0.0055911389 -0.021423355
 

Iteration Number = 69

DILUPBiCG:  Solving for Ux, Initial residual = 0.023409886, Final residual = 0.00019270761, No Iterations 1
DILUPBiCG:  Solving for Uy, Initial residual = 0.0019632455, Final residual = 1.7903295e-05, No Iterations 1
DILUPBiCG:  Solving for Uz, Initial residual = 0.0045410776, Final residual = 1.7075481e-05, No Iterations 1
DILUPBiCG:  Solving for h, Initial residual = 0.0069971742, Final residual = 4.0071675e-05, No Iterations 3
GAMG:  Solving for p_rgh, Initial residual = 0.012637013, Final residual = 3.4945142e-05, No Iterations 2
time step continuity errors : sum local = 8.1428658e-07, global = 2.6799212e-07, cumulative = 4.9378618e-05
ExecutionTime = 2.55 s  ClockTime = 2 s
Inflow      : -1.1994945e-05 [kg/s]
Outflow     : -1.1994721e-05 [kg/s]
EnergyInflow  : -3.5440528 [W]
EnergyOutflow : -3.5440427 [W]
rho max/avg/min : 1.2016412 1.2015223 1.2012147
T   max/avg/min : 293.80527 293.70467 293.7002
P   max/avg/min : 101324.91 101316.16 101307.41
Prg max/avg/min : 101325 101325 101325
U   max/avg/min : 0 -0.0056486227 -0.021593935
 

Iteration Number = 70

DILUPBiCG:  Solving for Ux, Initial residual = 0.022831012, Final residual = 0.00017864687, No Iterations 1
DILUPBiCG:  Solving for Uy, Initial residual = 0.0016673153, Final residual = 1.5075117e-05, No Iterations 1
DILUPBiCG:  Solving for Uz, Initial residual = 0.0044811381, Final residual = 1.6908776e-05, No Iterations 1
DILUPBiCG:  Solving for h, Initial residual = 0.0069327443, Final residual = 3.9533557e-05, No Iterations 3
GAMG:  Solving for p_rgh, Initial residual = 0.012270694, Final residual = 3.7977219e-05, No Iterations 2
time step continuity errors : sum local = 8.7828036e-07, global = 2.1117436e-07, cumulative = 4.9589792e-05
ExecutionTime = 2.58 s  ClockTime = 2 s
Inflow      : -1.2096928e-05 [kg/s]
Outflow     : -1.2096752e-05 [kg/s]
EnergyInflow  : -3.5741851 [W]
EnergyOutflow : -3.5741901 [W]
rho max/avg/min : 1.2016409 1.2015221 1.2012093
T   max/avg/min : 293.8066 293.70473 293.70021
P   max/avg/min : 101324.91 101316.16 101307.41
Prg max/avg/min : 101325 101325 101325
U   max/avg/min : 0 -0.0057058541 -0.021763097
 

Iteration Number = 71

DILUPBiCG:  Solving for Ux, Initial residual = 0.021285856, Final residual = 0.00018005197, No Iterations 1
DILUPBiCG:  Solving for Uy, Initial residual = 0.001778068, Final residual = 1.5531745e-05, No Iterations 1
DILUPBiCG:  Solving for Uz, Initial residual = 0.0044229815, Final residual = 1.6749518e-05, No Iterations 1
DILUPBiCG:  Solving for h, Initial residual = 0.0068706319, Final residual = 3.9012489e-05, No Iterations 3
GAMG:  Solving for p_rgh, Initial residual = 0.011156649, Final residual = 3.6114175e-05, No Iterations 2
time step continuity errors : sum local = 8.3332873e-07, global = 2.2200964e-07, cumulative = 4.9811802e-05
ExecutionTime = 2.62 s  ClockTime = 2 s
Inflow      : -1.2198292e-05 [kg/s]
Outflow     : -1.2198107e-05 [kg/s]
EnergyInflow  : -3.6041343 [W]
EnergyOutflow : -3.6041379 [W]
rho max/avg/min : 1.2016406 1.2015219 1.2012038
T   max/avg/min : 293.80793 293.70479 293.70022
P   max/avg/min : 101324.91 101316.16 101307.41
Prg max/avg/min : 101325 101325 101325
U   max/avg/min : 0 -0.005762838 -0.02193023
 

Iteration Number = 72

DILUPBiCG:  Solving for Ux, Initial residual = 0.022423877, Final residual = 0.00016175134, No Iterations 1
DILUPBiCG:  Solving for Uy, Initial residual = 0.0017058291, Final residual = 1.405905e-05, No Iterations 1
DILUPBiCG:  Solving for Uz, Initial residual = 0.0043663216, Final residual = 1.6599408e-05, No Iterations 1
DILUPBiCG:  Solving for h, Initial residual = 0.0068108086, Final residual = 3.8504554e-05, No Iterations 3
GAMG:  Solving for p_rgh, Initial residual = 0.013168488, Final residual = 3.8747577e-05, No Iterations 2
time step continuity errors : sum local = 8.8973044e-07, global = 1.6709372e-07, cumulative = 4.9978895e-05
ExecutionTime = 2.65 s  ClockTime = 2 s
Inflow      : -1.2298939e-05 [kg/s]
Outflow     : -1.2298799e-05 [kg/s]
EnergyInflow  : -3.6338715 [W]
EnergyOutflow : -3.6338899 [W]
rho max/avg/min : 1.2016403 1.2015216 1.2011984
T   max/avg/min : 293.80926 293.70485 293.70023
P   max/avg/min : 101324.91 101316.16 101307.41
Prg max/avg/min : 101325 101325 101325
U   max/avg/min : 0 -0.0058195785 -0.022095916
 

Iteration Number = 73

DILUPBiCG:  Solving for Ux, Initial residual = 0.020892817, Final residual = 0.00016785945, No Iterations 1
DILUPBiCG:  Solving for Uy, Initial residual = 0.0017642735, Final residual = 1.5447076e-05, No Iterations 1
DILUPBiCG:  Solving for Uz, Initial residual = 0.0043111852, Final residual = 1.6458647e-05, No Iterations 1
DILUPBiCG:  Solving for h, Initial residual = 0.0067527347, Final residual = 3.8012346e-05, No Iterations 3
GAMG:  Solving for p_rgh, Initial residual = 0.011825041, Final residual = 3.886762e-05, No Iterations 2
time step continuity errors : sum local = 8.8758837e-07, global = 1.5359942e-07, cumulative = 5.0132495e-05
ExecutionTime = 2.69 s  ClockTime = 2 s
[...]
ExecutionTime = 41.81 s  ClockTime = 41 s
Inflow      : -5.7758823e-05 [kg/s]
Outflow     : -5.7758788e-05 [kg/s]
EnergyInflow  : -17.065549 [W]
EnergyOutflow : -17.069898 [W]
rho max/avg/min : 1.2013552 1.2011575 1.1913157
T   max/avg/min : 296.24658 293.79406 293.75671
P   max/avg/min : 101324.91 101316.16 101307.42
Prg max/avg/min : 101325 101325 101325
U   max/avg/min : 0 -0.04189225 -0.092982235
 

Iteration Number = 1183

DILUPBiCG:  Solving for Ux, Initial residual = 0.017159929, Final residual = 0.0001341353, No Iterations 1
DILUPBiCG:  Solving for Uy, Initial residual = 0.0044241863, Final residual = 3.6675831e-05, No Iterations 1
DILUPBiCG:  Solving for Uz, Initial residual = 0.0003811511, Final residual = 9.885185e-09, No Iterations 2
DILUPBiCG:  Solving for h, Initial residual = 0.00075332028, Final residual = 1.8210816e-06, No Iterations 3
GAMG:  Solving for p_rgh, Initial residual = 0.0079746691, Final residual = 1.6813214e-05, No Iterations 2
time step continuity errors : sum local = 5.3683206e-07, global = 6.248548e-08, cumulative = -0.00056889979
ExecutionTime = 41.85 s  ClockTime = 41 s
Inflow      : -5.7784475e-05 [kg/s]
Outflow     : -5.7784423e-05 [kg/s]
EnergyInflow  : -17.073128 [W]
EnergyOutflow : -17.077478 [W]
rho max/avg/min : 1.201355 1.2011571 1.1913037
T   max/avg/min : 296.24956 293.79416 293.75678
P   max/avg/min : 101324.91 101316.16 101307.42
Prg max/avg/min : 101325 101325 101325
U   max/avg/min : 0 -0.041915857 -0.093021526
 

Iteration Number = 1184

DILUPBiCG:  Solving for Ux, Initial residual = 0.016834679, Final residual = 0.00013950605, No Iterations 1
DILUPBiCG:  Solving for Uy, Initial residual = 0.0045463054, Final residual = 4.2154768e-05, No Iterations 1
DILUPBiCG:  Solving for Uz, Initial residual = 0.0003803681, Final residual = 9.8516857e-09, No Iterations 2
DILUPBiCG:  Solving for h, Initial residual = 0.00075259389, Final residual = 1.8180058e-06, No Iterations 3
GAMG:  Solving for p_rgh, Initial residual = 0.0076029443, Final residual = 6.0833409e-05, No Iterations 1
time step continuity errors : sum local = 1.9386384e-06, global = -1.021713e-06, cumulative = -0.0005699215
ExecutionTime = 41.88 s  ClockTime = 42 s
Inflow      : -5.780919e-05 [kg/s]
Outflow     : -5.7810042e-05 [kg/s]
EnergyInflow  : -17.080431 [W]
EnergyOutflow : -17.085053 [W]
rho max/avg/min : 1.2013547 1.2011567 1.1912917
T   max/avg/min : 296.25254 293.79425 293.75684
P   max/avg/min : 101324.91 101316.16 101307.42
Prg max/avg/min : 101325 101325 101325
U   max/avg/min : 0 -0.04193943 -0.093060796
 

Iteration Number = 1185

DILUPBiCG:  Solving for Ux, Initial residual = 0.015327508, Final residual = 0.00012466468, No Iterations 1
DILUPBiCG:  Solving for Uy, Initial residual = 0.004410265, Final residual = 4.117651e-05, No Iterations 1
DILUPBiCG:  Solving for Uz, Initial residual = 0.00037956895, Final residual = 9.7475003e-09, No Iterations 2
DILUPBiCG:  Solving for h, Initial residual = 0.00075117127, Final residual = 1.8143279e-06, No Iterations 3
GAMG:  Solving for p_rgh, Initial residual = 0.0075381071, Final residual = 2.3399407e-05, No Iterations 2
time step continuity errors : sum local = 7.4618005e-07, global = 6.828634e-08, cumulative = -0.00056985322
ExecutionTime = 41.92 s  ClockTime = 42 s
Inflow      : -5.7835705e-05 [kg/s]
Outflow     : -5.7835648e-05 [kg/s]
EnergyInflow  : -17.088265 [W]
EnergyOutflow : -17.092624 [W]
rho max/avg/min : 1.2013545 1.2011564 1.1912798
T   max/avg/min : 296.25552 293.79434 293.7569
P   max/avg/min : 101324.91 101316.16 101307.42
Prg max/avg/min : 101325 101325 101325
U   max/avg/min : 0 -0.041962994 -0.093100121
 

Iteration Number = 1186

DILUPBiCG:  Solving for Ux, Initial residual = 0.016041102, Final residual = 0.00012684874, No Iterations 1
DILUPBiCG:  Solving for Uy, Initial residual = 0.0043994331, Final residual = 4.6895427e-07, No Iterations 2
DILUPBiCG:  Solving for Uz, Initial residual = 0.00037945752, Final residual = 9.8000594e-09, No Iterations 2
DILUPBiCG:  Solving for h, Initial residual = 0.00075130137, Final residual = 7.5057243e-06, No Iterations 2
GAMG:  Solving for p_rgh, Initial residual = 0.0073070428, Final residual = 7.0709826e-05, No Iterations 1
time step continuity errors : sum local = 2.2547296e-06, global = -1.2143257e-06, cumulative = -0.00057106754
ExecutionTime = 41.95 s  ClockTime = 42 s
Inflow      : -5.7860229e-05 [kg/s]
Outflow     : -5.7861242e-05 [kg/s]
EnergyInflow  : -17.095511 [W]
EnergyOutflow : -17.100192 [W]
rho max/avg/min : 1.2013542 1.201156 1.1912678
T   max/avg/min : 296.25851 293.79443 293.75696
P   max/avg/min : 101324.91 101316.16 101307.42
Prg max/avg/min : 101325 101325 101325
U   max/avg/min : 0 -0.041986534 -0.093139556
 

Iteration Number = 1187

DILUPBiCG:  Solving for Ux, Initial residual = 0.016633844, Final residual = 0.00013358702, No Iterations 1
DILUPBiCG:  Solving for Uy, Initial residual = 0.0044119111, Final residual = 9.5615616e-06, No Iterations 2
DILUPBiCG:  Solving for Uz, Initial residual = 0.0003787706, Final residual = 9.7352213e-09, No Iterations 2
DILUPBiCG:  Solving for h, Initial residual = 0.00075019038, Final residual = 7.4892522e-06, No Iterations 2
GAMG:  Solving for p_rgh, Initial residual = 0.0076969014, Final residual = 2.6432804e-05, No Iterations 2
time step continuity errors : sum local = 8.4391455e-07, global = 1.6950508e-07, cumulative = -0.00057089804
ExecutionTime = 41.99 s  ClockTime = 42 s
Inflow      : -5.7886948e-05 [kg/s]
Outflow     : -5.7886807e-05 [kg/s]
EnergyInflow  : -17.103405 [W]
EnergyOutflow : -17.107751 [W]
rho max/avg/min : 1.2013539 1.2011556 1.1912557
T   max/avg/min : 296.2615 293.79452 293.75703
P   max/avg/min : 101324.91 101316.16 101307.42
Prg max/avg/min : 101325 101325 101325
U   max/avg/min : 0 -0.042010099 -0.093179084
 

Iteration Number = 1188

DILUPBiCG:  Solving for Ux, Initial residual = 0.015941225, Final residual = 0.00012877865, No Iterations 1
DILUPBiCG:  Solving for Uy, Initial residual = 0.0044084628, Final residual = 3.9751004e-05, No Iterations 1
DILUPBiCG:  Solving for Uz, Initial residual = 0.00037957279, Final residual = 9.7689989e-09, No Iterations 2
DILUPBiCG:  Solving for h, Initial residual = 0.00075052247, Final residual = 7.4881475e-06, No Iterations 2
GAMG:  Solving for p_rgh, Initial residual = 0.0076627016, Final residual = 1.6895965e-05, No Iterations 2
time step continuity errors : sum local = 5.397397e-07, global = 1.9729373e-07, cumulative = -0.00057070075
ExecutionTime = 42.03 s  ClockTime = 42 s
Inflow      : -5.7912534e-05 [kg/s]
Outflow     : -5.7912369e-05 [kg/s]
EnergyInflow  : -17.110965 [W]
EnergyOutflow : -17.115309 [W]
rho max/avg/min : 1.2013537 1.2011552 1.1912437
T   max/avg/min : 296.26449 293.79462 293.75709
P   max/avg/min : 101324.91 101316.16 101307.42
Prg max/avg/min : 101325 101325 101325
U   max/avg/min : 0 -0.042033703 -0.093218701
 

Iteration Number = 1189

DILUPBiCG:  Solving for Ux, Initial residual = 0.015730146, Final residual = 0.00012113039, No Iterations 1
DILUPBiCG:  Solving for Uy, Initial residual = 0.0044223925, Final residual = 3.1350412e-07, No Iterations 2
DILUPBiCG:  Solving for Uz, Initial residual = 0.00038040584, Final residual = 9.777129e-09, No Iterations 2
DILUPBiCG:  Solving for h, Initial residual = 0.00074963275, Final residual = 7.4898835e-06, No Iterations 2
GAMG:  Solving for p_rgh, Initial residual = 0.0072154866, Final residual = 6.4869356e-05, No Iterations 1
time step continuity errors : sum local = 2.0737219e-06, global = -6.1525894e-07, cumulative = -0.000571316
ExecutionTime = 42.07 s  ClockTime = 42 s
Inflow      : -5.7937414e-05 [kg/s]
Outflow     : -5.7937927e-05 [kg/s]
EnergyInflow  : -17.118316 [W]
EnergyOutflow : -17.122866 [W]
rho max/avg/min : 1.2013534 1.2011549 1.1912316
T   max/avg/min : 296.26749 293.79471 293.75715
P   max/avg/min : 101324.91 101316.16 101307.42
Prg max/avg/min : 101325 101325 101325
U   max/avg/min : 0 -0.042057298 -0.093258246
 

Iteration Number = 1190

DILUPBiCG:  Solving for Ux, Initial residual = 0.01587282, Final residual = 0.00012780829, No Iterations 1
DILUPBiCG:  Solving for Uy, Initial residual = 0.0045484828, Final residual = 2.3371125e-07, No Iterations 2
DILUPBiCG:  Solving for Uz, Initial residual = 0.00037964578, Final residual = 9.7750641e-09, No Iterations 2
DILUPBiCG:  Solving for h, Initial residual = 0.00074837502, Final residual = 1.8117338e-06, No Iterations 3
GAMG:  Solving for p_rgh, Initial residual = 0.0076208303, Final residual = 1.3632348e-05, No Iterations 2
time step continuity errors : sum local = 4.3686297e-07, global = -4.7645538e-08, cumulative = -0.00057136365
ExecutionTime = 42.11 s  ClockTime = 42 s
Inflow      : -5.7963435e-05 [kg/s]
Outflow     : -5.7963475e-05 [kg/s]
EnergyInflow  : -17.126004 [W]
EnergyOutflow : -17.13042 [W]
rho max/avg/min : 1.2013532 1.2011545 1.1912196
T   max/avg/min : 296.27049 293.7948 293.75721
P   max/avg/min : 101324.91 101316.16 101307.42
Prg max/avg/min : 101325 101325 101325
U   max/avg/min : 0 -0.042080871 -0.093297399
 

Iteration Number = 1191

DILUPBiCG:  Solving for Ux, Initial residual = 0.01771884, Final residual = 0.00014260072, No Iterations 1
DILUPBiCG:  Solving for Uy, Initial residual = 0.0043443088, Final residual = 2.6841231e-05, No Iterations 1
DILUPBiCG:  Solving for Uz, Initial residual = 0.00037908809, Final residual = 9.8074747e-09, No Iterations 2
DILUPBiCG:  Solving for h, Initial residual = 0.00074764489, Final residual = 1.8007256e-06, No Iterations 3
GAMG:  Solving for p_rgh, Initial residual = 0.0080207673, Final residual = 1.4773004e-05, No Iterations 2
time step continuity errors : sum local = 4.7406903e-07, global = -1.2146691e-08, cumulative = -0.0005713758
ExecutionTime = 42.15 s  ClockTime = 42 s
Inflow      : -5.7989022e-05 [kg/s]
Outflow     : -5.7989032e-05 [kg/s]
EnergyInflow  : -17.133564 [W]
EnergyOutflow : -17.137977 [W]
rho max/avg/min : 1.2013529 1.2011541 1.1912075
T   max/avg/min : 296.2735 293.79489 293.75728
P   max/avg/min : 101324.91 101316.16 101307.42
Prg max/avg/min : 101325 101325 101325
U   max/avg/min : 0 -0.042104422 -0.093336308
 

Iteration Number = 1192

DILUPBiCG:  Solving for Ux, Initial residual = 0.015164567, Final residual = 0.00012131487, No Iterations 1
DILUPBiCG:  Solving for Uy, Initial residual = 0.0043753552, Final residual = 3.4499715e-05, No Iterations 1
DILUPBiCG:  Solving for Uz, Initial residual = 0.00037861907, Final residual = 9.8660236e-09, No Iterations 2
DILUPBiCG:  Solving for h, Initial residual = 0.00074685999, Final residual = 1.7963221e-06, No Iterations 3
GAMG:  Solving for p_rgh, Initial residual = 0.0069748876, Final residual = 6.8439114e-05, No Iterations 1
time step continuity errors : sum local = 2.189192e-06, global = -1.1366866e-06, cumulative = -0.00057251248
ExecutionTime = 42.18 s  ClockTime = 42 s
Inflow      : -5.801362e-05 [kg/s]
Outflow     : -5.8014568e-05 [kg/s]
EnergyInflow  : -17.140832 [W]
EnergyOutflow : -17.145528 [W]
rho max/avg/min : 1.2013526 1.2011537 1.1911954
T   max/avg/min : 296.27651 293.79499 293.75734
P   max/avg/min : 101324.91 101316.16 101307.42
Prg max/avg/min : 101325 101325 101325
U   max/avg/min : 0 -0.042127945 -0.093375344
 

Iteration Number = 1193

DILUPBiCG:  Solving for Ux, Initial residual = 0.01543529, Final residual = 0.0001199498, No Iterations 1
DILUPBiCG:  Solving for Uy, Initial residual = 0.0042618024, Final residual = 3.0971696e-05, No Iterations 1
DILUPBiCG:  Solving for Uz, Initial residual = 0.00037789981, Final residual = 9.8295707e-09, No Iterations 2
DILUPBiCG:  Solving for h, Initial residual = 0.00074547715, Final residual = 1.7927388e-06, No Iterations 3
GAMG:  Solving for p_rgh, Initial residual = 0.0071623331, Final residual = 2.3388922e-05, No Iterations 2
time step continuity errors : sum local = 7.4878937e-07, global = 8.5681222e-08, cumulative = -0.0005724268
ExecutionTime = 42.23 s  ClockTime = 42 s
Inflow      : -5.804016e-05 [kg/s]
Outflow     : -5.8040089e-05 [kg/s]
EnergyInflow  : -17.148674 [W]
EnergyOutflow : -17.153074 [W]
rho max/avg/min : 1.2013524 1.2011534 1.1911833
T   max/avg/min : 296.27952 293.79508 293.7574
P   max/avg/min : 101324.91 101316.16 101307.42
Prg max/avg/min : 101325 101325 101325
U   max/avg/min : 0 -0.042151459 -0.093414834
 

Iteration Number = 1194

DILUPBiCG:  Solving for Ux, Initial residual = 0.015877425, Final residual = 0.00012037223, No Iterations 1
DILUPBiCG:  Solving for Uy, Initial residual = 0.0043624703, Final residual = 6.1577012e-07, No Iterations 2
DILUPBiCG:  Solving for Uz, Initial residual = 0.00037775127, Final residual = 9.8836991e-09, No Iterations 2
DILUPBiCG:  Solving for h, Initial residual = 0.00074562103, Final residual = 7.4532505e-06, No Iterations 2
GAMG:  Solving for p_rgh, Initial residual = 0.00756571, Final residual = 7.2212715e-05, No Iterations 1
time step continuity errors : sum local = 2.3115289e-06, global = -1.0803005e-06, cumulative = -0.0005735071
ExecutionTime = 42.27 s  ClockTime = 42 s
Inflow      : -5.8064695e-05 [kg/s]
Outflow     : -5.8065596e-05 [kg/s]
EnergyInflow  : -17.155923 [W]
EnergyOutflow : -17.160616 [W]
rho max/avg/min : 1.2013521 1.201153 1.1911712
T   max/avg/min : 296.28254 293.79517 293.75746
P   max/avg/min : 101324.91 101316.16 101307.42
Prg max/avg/min : 101325 101325 101325
U   max/avg/min : 0 -0.042174947 -0.093454118
 

Iteration Number = 1195

DILUPBiCG:  Solving for Ux, Initial residual = 0.017165063, Final residual = 0.00013413317, No Iterations 1
DILUPBiCG:  Solving for Uy, Initial residual = 0.0045258026, Final residual = 5.0694002e-07, No Iterations 2
DILUPBiCG:  Solving for Uz, Initial residual = 0.00037700257, Final residual = 9.8583976e-09, No Iterations 2
DILUPBiCG:  Solving for h, Initial residual = 0.00074456896, Final residual = 7.4333106e-06, No Iterations 2
GAMG:  Solving for p_rgh, Initial residual = 0.0075547621, Final residual = 2.2177695e-05, No Iterations 2
time step continuity errors : sum local = 7.1038354e-07, global = 6.1377597e-08, cumulative = -0.00057344572
ExecutionTime = 42.32 s  ClockTime = 42 s
Inflow      : -5.8091125e-05 [kg/s]
Outflow     : -5.8091074e-05 [kg/s]
EnergyInflow  : -17.163732 [W]
EnergyOutflow : -17.168149 [W]
rho max/avg/min : 1.2013519 1.2011526 1.191159
T   max/avg/min : 296.28555 293.79526 293.75753
P   max/avg/min : 101324.91 101316.16 101307.42
Prg max/avg/min : 101325 101325 101325
U   max/avg/min : 0 -0.042198432 -0.093493318
 

Iteration Number = 1196

DILUPBiCG:  Solving for Ux, Initial residual = 0.015563326, Final residual = 0.00011324708, No Iterations 1
DILUPBiCG:  Solving for Uy, Initial residual = 0.0044371071, Final residual = 1.1831986e-05, No Iterations 2
DILUPBiCG:  Solving for Uz, Initial residual = 0.00037698538, Final residual = 9.8582541e-09, No Iterations 2
DILUPBiCG:  Solving for h, Initial residual = 0.00074476025, Final residual = 7.4304765e-06, No Iterations 2
GAMG:  Solving for p_rgh, Initial residual = 0.0075009626, Final residual = 1.6186975e-05, No Iterations 2
time step continuity errors : sum local = 5.1888991e-07, global = 1.4062971e-07, cumulative = -0.0005733051
ExecutionTime = 42.35 s  ClockTime = 42 s
Inflow      : -5.8116667e-05 [kg/s]
Outflow     : -5.8116549e-05 [kg/s]
EnergyInflow  : -17.171278 [W]
EnergyOutflow : -17.175682 [W]
rho max/avg/min : 1.2013516 1.2011522 1.1911469
T   max/avg/min : 296.28857 293.79535 293.75759
P   max/avg/min : 101324.91 101316.16 101307.42
Prg max/avg/min : 101325 101325 101325
U   max/avg/min : 0 -0.042221928 -0.09353274
 

Iteration Number = 1197

DILUPBiCG:  Solving for Ux, Initial residual = 0.016213725, Final residual = 0.00012270908, No Iterations 1
DILUPBiCG:  Solving for Uy, Initial residual = 0.0045212388, Final residual = 2.5310768e-07, No Iterations 2
DILUPBiCG:  Solving for Uz, Initial residual = 0.00037730182, Final residual = 9.8858726e-09, No Iterations 2
DILUPBiCG:  Solving for h, Initial residual = 0.0007439504, Final residual = 7.4308207e-06, No Iterations 2
GAMG:  Solving for p_rgh, Initial residual = 0.0076315679, Final residual = 6.6205655e-05, No Iterations 1
time step continuity errors : sum local = 2.1254534e-06, global = -7.8521859e-07, cumulative = -0.00057409031
ExecutionTime = 42.38 s  ClockTime = 42 s
Inflow      : -5.8141365e-05 [kg/s]
Outflow     : -5.814202e-05 [kg/s]
EnergyInflow  : -17.178576 [W]
EnergyOutflow : -17.183213 [W]
rho max/avg/min : 1.2013513 1.2011519 1.1911347
T   max/avg/min : 296.29159 293.79544 293.75765
P   max/avg/min : 101324.91 101316.16 101307.42
Prg max/avg/min : 101325 101325 101325
U   max/avg/min : 0 -0.042245408 -0.093572267
 

Iteration Number = 1198

DILUPBiCG:  Solving for Ux, Initial residual = 0.014424619, Final residual = 0.0001061484, No Iterations 1
DILUPBiCG:  Solving for Uy, Initial residual = 0.004516074, Final residual = 2.7417763e-05, No Iterations 1
DILUPBiCG:  Solving for Uz, Initial residual = 0.00037656351, Final residual = 9.8102607e-09, No Iterations 2
DILUPBiCG:  Solving for h, Initial residual = 0.00074263084, Final residual = 1.7929645e-06, No Iterations 3
GAMG:  Solving for p_rgh, Initial residual = 0.0072800185, Final residual = 1.7009425e-05, No Iterations 2
time step continuity errors : sum local = 5.4760694e-07, global = -4.2741655e-08, cumulative = -0.00057413306
ExecutionTime = 42.42 s  ClockTime = 42 s
Inflow      : -5.8167445e-05 [kg/s]
Outflow     : -5.8167481e-05 [kg/s]
EnergyInflow  : -17.186282 [W]
EnergyOutflow : -17.190742 [W]
rho max/avg/min : 1.2013511 1.2011515 1.1911226
T   max/avg/min : 296.29461 293.79554 293.75771
P   max/avg/min : 101324.91 101316.16 101307.42
Prg max/avg/min : 101325 101325 101325
U   max/avg/min : 0 -0.042268882 -0.093611398
 

Iteration Number = 1199

DILUPBiCG:  Solving for Ux, Initial residual = 0.016153582, Final residual = 0.00012325995, No Iterations 1
DILUPBiCG:  Solving for Uy, Initial residual = 0.0046964131, Final residual = 1.0117057e-06, No Iterations 2
DILUPBiCG:  Solving for Uz, Initial residual = 0.00037650921, Final residual = 9.7782665e-09, No Iterations 2
DILUPBiCG:  Solving for h, Initial residual = 0.00074203435, Final residual = 1.7823047e-06, No Iterations 3
GAMG:  Solving for p_rgh, Initial residual = 0.007337661, Final residual = 1.6382482e-05, No Iterations 2
time step continuity errors : sum local = 5.2721655e-07, global = 4.5442832e-08, cumulative = -0.00057408761
ExecutionTime = 42.45 s  ClockTime = 42 s
Inflow      : -5.8192988e-05 [kg/s]
Outflow     : -5.819295e-05 [kg/s]
EnergyInflow  : -17.193829 [W]
EnergyOutflow : -17.198273 [W]
rho max/avg/min : 1.2013508 1.2011511 1.1911105
T   max/avg/min : 296.29763 293.79563 293.75777
P   max/avg/min : 101324.91 101316.16 101307.42
Prg max/avg/min : 101325 101325 101325
U   max/avg/min : 0 -0.042292361 -0.093650426
 

Iteration Number = 1200

DILUPBiCG:  Solving for Ux, Initial residual = 0.01518647, Final residual = 0.00011939533, No Iterations 1
DILUPBiCG:  Solving for Uy, Initial residual = 0.0044134263, Final residual = 3.130969e-07, No Iterations 2
DILUPBiCG:  Solving for Uz, Initial residual = 0.00037666947, Final residual = 9.7867941e-09, No Iterations 2
DILUPBiCG:  Solving for h, Initial residual = 0.00074124771, Final residual = 1.7785365e-06, No Iterations 3
GAMG:  Solving for p_rgh, Initial residual = 0.0074990239, Final residual = 6.6092816e-05, No Iterations 1
time step continuity errors : sum local = 2.1245255e-06, global = -1.0556392e-06, cumulative = -0.00057514325
ExecutionTime = 42.49 s  ClockTime = 42 s
Inflow      : -5.8217519e-05 [kg/s]
Outflow     : -5.8218399e-05 [kg/s]
EnergyInflow  : -17.201076 [W]
EnergyOutflow : -17.205798 [W]
rho max/avg/min : 1.2013506 1.2011507 1.1910984
T   max/avg/min : 296.30064 293.79572 293.75784
P   max/avg/min : 101324.91 101316.16 101307.42
Prg max/avg/min : 101325 101325 101325
U   max/avg/min : 0 -0.04231582 -0.093689615
 
End

