/*---------------------------------------------------------------------------*\
| =========                 |                                                 |
| \\      /  F ield         | OpenFOAM: The Open Source CFD Toolbox           |
|  \\    /   O peration     | Version:  4.0                                   |
|   \\  /    A nd           | Web:      www.OpenFOAM.org                      |
|    \\/     M anipulation  |                                                 |
\*---------------------------------------------------------------------------*/
Build  : 4.0-665f1db4c1f1
Exec   : pupoBuoyantSimpleFoam
Date   : Aug 19 2016
Time   : 16:17:08
Host   : "SC500"
PID    : 17972
Case   : /home/pedro/Documents/ThesisProject/OpenFoam/validation1rod/AppENOFLOW
nProcs : 1
sigFpe : Enabling floating point exception trapping (FOAM_SIGFPE).
fileModificationChecking : Monitoring run-time modified files using timeStampMaster
allowSystemOperations : Allowing user-supplied system call operations

// * * * * * * * * * * * * * * * * * * * * * * * * * * * * * * * * * * * * * //
Create time

Create mesh for time = 0


SIMPLE: convergence criteria
    field p_rgh	 tolerance 1e-06
    field Uz	 tolerance 1e-06
    field h	 tolerance 1e-06

Reading thermophysical properties

Selecting thermodynamics package 
{
    type            heRhoThermo;
    mixture         pureMixture;
    transport       sutherland;
    thermo          hConst;
    equationOfState perfectGas;
    specie          specie;
    energy          sensibleEnthalpy;
}


Reading g

Reading hRef
Calculating field g.h

Selecting turbulence model type laminar
No MRF models present

Selecting radiationModel none
 
rho max/avg/min : 1.2016452 1.2015414 1.2014377
T   max/avg/min : 293.7 293.7 293.7
P   max/avg/min : 101324.91 101316.16 101307.41
Prg max/avg/min : 101325 101325 101325
U   max/avg/min : 0 0 0
 
No finite volume options present


Starting Iteration loop

Iteration Number = 1

DILUPBiCG:  Solving for Ux, Initial residual = 0.009764874, Final residual = 7.8889372e-05, No Iterations 1
DILUPBiCG:  Solving for Uy, Initial residual = 4.8698736e-07, Final residual = 4.4547675e-09, No Iterations 1
DILUPBiCG:  Solving for Uz, Initial residual = 1, Final residual = 0.00034288199, No Iterations 2
DILUPBiCG:  Solving for h, Initial residual = 0.99970655, Final residual = 0.0028919224, No Iterations 4
MACARENA
GAMG:  Solving for p_rgh, Initial residual = 0.0058068572, Final residual = 9.1161535e-05, No Iterations 5
MACARENA
MACARENA
time step continuity errors : sum local = 5.0057913e-06, global = -8.2891519e-07, cumulative = -8.2891519e-07
ExecutionTime = 0.09 s  ClockTime = 0 s
Inflow      : -2.6278922e-07 [kg/s]
Outflow     : -2.6348053e-07 [kg/s]
EnergyInflow  : -0.07764428 [W]
EnergyOutflow : -0.077848538 [W]
rho max/avg/min : 1.2016452 1.2015414 1.2014372
T   max/avg/min : 293.70011 293.7 293.7
P   max/avg/min : 101324.91 101316.16 101307.41
Prg max/avg/min : 101325 101325 101325
U   max/avg/min : 0 -6.7223614e-05 -0.00081846261
Prg max-min : 0.00084132866
 
Iteration Number = 2

DILUPBiCG:  Solving for Ux, Initial residual = 0.35163279, Final residual = 0.00012584491, No Iterations 2
DILUPBiCG:  Solving for Uy, Initial residual = 6.7142071e-05, Final residual = 1.6528792e-08, No Iterations 2
DILUPBiCG:  Solving for Uz, Initial residual = 0.38808144, Final residual = 4.2732409e-05, No Iterations 2
DILUPBiCG:  Solving for h, Initial residual = 0.9445397, Final residual = 0.0028603327, No Iterations 3
MACARENA
GAMG:  Solving for p_rgh, Initial residual = 0.1091187, Final residual = 0.00056459662, No Iterations 4
MACARENA
MACARENA
time step continuity errors : sum local = 8.4763849e-06, global = 3.6622053e-06, cumulative = 2.8332901e-06
ExecutionTime = 0.12 s  ClockTime = 0 s
Inflow      : -3.3733043e-07 [kg/s]
Outflow     : -3.3427615e-07 [kg/s]
EnergyInflow  : -0.099668391 [W]
EnergyOutflow : -0.098765968 [W]
rho max/avg/min : 1.2016452 1.2015414 1.2014374
T   max/avg/min : 293.70013 293.70001 293.7
P   max/avg/min : 101324.91 101316.16 101307.41
Prg max/avg/min : 101325 101325 101325
U   max/avg/min : 0 -0.00014596695 -0.00089301667
Prg max-min : 0.001286093
 
Iteration Number = 3

DILUPBiCG:  Solving for Ux, Initial residual = 0.37050746, Final residual = 9.418396e-05, No Iterations 2
DILUPBiCG:  Solving for Uy, Initial residual = 0.00011025522, Final residual = 3.6405547e-08, No Iterations 2
DILUPBiCG:  Solving for Uz, Initial residual = 0.082831427, Final residual = 1.5864689e-05, No Iterations 2
DILUPBiCG:  Solving for h, Initial residual = 0.21777434, Final residual = 0.00068217486, No Iterations 3
MACARENA
GAMG:  Solving for p_rgh, Initial residual = 0.044789626, Final residual = 0.00020271131, No Iterations 4
MACARENA
MACARENA
time step continuity errors : sum local = 8.8809038e-06, global = 3.7746785e-06, cumulative = 6.6079687e-06
ExecutionTime = 0.16 s  ClockTime = 0 s
Inflow      : -2.8917191e-07 [kg/s]
Outflow     : -2.8602383e-07 [kg/s]
EnergyInflow  : -0.085439368 [W]
EnergyOutflow : -0.084509229 [W]
rho max/avg/min : 1.2016452 1.2015413 1.2014374
T   max/avg/min : 293.70023 293.70003 293.7
P   max/avg/min : 101324.91 101316.16 101307.41
Prg max/avg/min : 101325 101325 101325
U   max/avg/min : 0 -0.00013417348 -0.00075916754
Prg max-min : 0.0018973444
 
Iteration Number = 4

DILUPBiCG:  Solving for Ux, Initial residual = 0.20188266, Final residual = 6.4894854e-05, No Iterations 2
DILUPBiCG:  Solving for Uy, Initial residual = 9.763289e-05, Final residual = 2.9811443e-08, No Iterations 2
DILUPBiCG:  Solving for Uz, Initial residual = 0.16599755, Final residual = 0.0014710711, No Iterations 1
DILUPBiCG:  Solving for h, Initial residual = 0.053346005, Final residual = 0.00045593291, No Iterations 3
MACARENA
GAMG:  Solving for p_rgh, Initial residual = 0.010814407, Final residual = 6.1434105e-05, No Iterations 4
MACARENA
MACARENA
time step continuity errors : sum local = 4.6917894e-06, global = -7.1183387e-07, cumulative = 5.8961348e-06
ExecutionTime = 0.19 s  ClockTime = 0 s
Inflow      : -2.3075016e-07 [kg/s]
Outflow     : -2.3134382e-07 [kg/s]
EnergyInflow  : -0.068177949 [W]
EnergyOutflow : -0.068353355 [W]
rho max/avg/min : 1.2016452 1.2015413 1.2014375
T   max/avg/min : 293.70024 293.70003 293.7
P   max/avg/min : 101324.91 101316.16 101307.41
Prg max/avg/min : 101325 101325 101325
U   max/avg/min : 0 -8.6116324e-05 -0.00051374367
Prg max-min : 0.0017688692
 
Iteration Number = 5

DILUPBiCG:  Solving for Ux, Initial residual = 0.66020594, Final residual = 0.00014861928, No Iterations 2
DILUPBiCG:  Solving for Uy, Initial residual = 6.7659751e-05, Final residual = 1.6579852e-08, No Iterations 2
DILUPBiCG:  Solving for Uz, Initial residual = 0.17340418, Final residual = 1.7092682e-05, No Iterations 2
DILUPBiCG:  Solving for h, Initial residual = 0.030863929, Final residual = 4.790057e-05, No Iterations 4
MACARENA
GAMG:  Solving for p_rgh, Initial residual = 0.017016342, Final residual = 7.8429267e-05, No Iterations 4
MACARENA
MACARENA
time step continuity errors : sum local = 5.4010476e-06, global = -1.8085493e-06, cumulative = 4.0875855e-06
ExecutionTime = 0.23 s  ClockTime = 0 s
Inflow      : -1.8606495e-07 [kg/s]
Outflow     : -1.8757328e-07 [kg/s]
EnergyInflow  : -0.054975161 [W]
EnergyOutflow : -0.055420815 [W]
rho max/avg/min : 1.2016452 1.2015413 1.2014375
T   max/avg/min : 293.70025 293.70004 293.7
P   max/avg/min : 101324.91 101316.16 101307.41
Prg max/avg/min : 101325 101325 101325
U   max/avg/min : 0 -6.5711105e-05 -0.00036980091
Prg max-min : 0.0015432833
 
Iteration Number = 6

DILUPBiCG:  Solving for Ux, Initial residual = 0.13802233, Final residual = 4.5370706e-05, No Iterations 2
DILUPBiCG:  Solving for Uy, Initial residual = 5.6001148e-05, Final residual = 1.2914494e-08, No Iterations 2
DILUPBiCG:  Solving for Uz, Initial residual = 0.02010402, Final residual = 3.7021047e-06, No Iterations 2
DILUPBiCG:  Solving for h, Initial residual = 0.034927969, Final residual = 0.00032152405, No Iterations 3
MACARENA
GAMG:  Solving for p_rgh, Initial residual = 0.0079940328, Final residual = 4.8887811e-05, No Iterations 2
MACARENA
MACARENA
time step continuity errors : sum local = 2.788554e-06, global = -6.9981799e-07, cumulative = 3.3877675e-06
ExecutionTime = 0.26 s  ClockTime = 0 s
Inflow      : -1.5380309e-07 [kg/s]
Outflow     : -1.5438674e-07 [kg/s]
EnergyInflow  : -0.045442999 [W]
EnergyOutflow : -0.045615445 [W]
rho max/avg/min : 1.2016452 1.2015413 1.2014375
T   max/avg/min : 293.70026 293.70004 293.7
P   max/avg/min : 101324.91 101316.16 101307.41
Prg max/avg/min : 101325 101325 101325
U   max/avg/min : 0 -6.2238489e-05 -0.00030797028
Prg max-min : 0.0015413292
 
Iteration Number = 7

DILUPBiCG:  Solving for Ux, Initial residual = 0.4582528, Final residual = 6.7503979e-05, No Iterations 2
DILUPBiCG:  Solving for Uy, Initial residual = 3.5287316e-05, Final residual = 7.8231187e-09, No Iterations 2
DILUPBiCG:  Solving for Uz, Initial residual = 0.020779303, Final residual = 3.3749408e-06, No Iterations 2
DILUPBiCG:  Solving for h, Initial residual = 0.029642435, Final residual = 0.00018836368, No Iterations 3
MACARENA
GAMG:  Solving for p_rgh, Initial residual = 0.0064414135, Final residual = 6.2653114e-05, No Iterations 3
MACARENA
MACARENA
time step continuity errors : sum local = 3.5736383e-06, global = 1.6721745e-06, cumulative = 5.059942e-06
ExecutionTime = 0.3 s  ClockTime = 0 s
Inflow      : -1.3000743e-07 [kg/s]
Outflow     : -1.2861283e-07 [kg/s]
EnergyInflow  : -0.03841228 [W]
EnergyOutflow : -0.03800023 [W]
rho max/avg/min : 1.2016452 1.2015413 1.2014375
T   max/avg/min : 293.70027 293.70004 293.7
P   max/avg/min : 101324.91 101316.16 101307.41
Prg max/avg/min : 101325 101325 101325
U   max/avg/min : 0 -5.5248132e-05 -0.00027833625
Prg max-min : 0.0015849852
 
Iteration Number = 8

DILUPBiCG:  Solving for Ux, Initial residual = 0.23956816, Final residual = 6.6094369e-05, No Iterations 2
DILUPBiCG:  Solving for Uy, Initial residual = 2.8924825e-05, Final residual = 7.2006076e-09, No Iterations 2
DILUPBiCG:  Solving for Uz, Initial residual = 0.069793251, Final residual = 8.8630278e-06, No Iterations 2
DILUPBiCG:  Solving for h, Initial residual = 0.020526036, Final residual = 2.0227833e-05, No Iterations 4
MACARENA
GAMG:  Solving for p_rgh, Initial residual = 0.0041918015, Final residual = 4.9902483e-05, No Iterations 2
MACARENA
MACARENA
time step continuity errors : sum local = 2.9469158e-06, global = -1.1796305e-06, cumulative = 3.8803115e-06
ExecutionTime = 0.34 s  ClockTime = 0 s
Inflow      : -1.0674743e-07 [kg/s]
Outflow     : -1.0773124e-07 [kg/s]
EnergyInflow  : -0.03153983 [W]
EnergyOutflow : -0.031830509 [W]
rho max/avg/min : 1.2016452 1.2015412 1.2014375
T   max/avg/min : 293.70028 293.70005 293.7
P   max/avg/min : 101324.91 101316.16 101307.41
Prg max/avg/min : 101325 101325 101325
U   max/avg/min : 0 -4.5637244e-05 -0.00023876908
Prg max-min : 0.001575829
 
Iteration Number = 9

DILUPBiCG:  Solving for Ux, Initial residual = 0.38715044, Final residual = 7.9588217e-05, No Iterations 2
DILUPBiCG:  Solving for Uy, Initial residual = 2.5175572e-05, Final residual = 6.2182127e-09, No Iterations 2
DILUPBiCG:  Solving for Uz, Initial residual = 0.074781438, Final residual = 1.0290262e-05, No Iterations 2
DILUPBiCG:  Solving for h, Initial residual = 0.017063732, Final residual = 0.00010855986, No Iterations 3
MACARENA
GAMG:  Solving for p_rgh, Initial residual = 0.0060297129, Final residual = 7.9075258e-05, No Iterations 2
MACARENA
MACARENA
time step continuity errors : sum local = 4.6497858e-06, global = -4.2136805e-07, cumulative = 3.4589435e-06
ExecutionTime = 0.37 s  ClockTime = 0 s
Inflow      : -9.053136e-08 [kg/s]
Outflow     : -9.0882781e-08 [kg/s]
EnergyInflow  : -0.026748595 [W]
EnergyOutflow : -0.026852426 [W]
rho max/avg/min : 1.2016452 1.2015412 1.2014375
T   max/avg/min : 293.70028 293.70005 293.7
P   max/avg/min : 101324.91 101316.16 101307.41
Prg max/avg/min : 101325 101325 101325
U   max/avg/min : 0 -3.8882124e-05 -0.00019459988
Prg max-min : 0.0015487796
 
Iteration Number = 10

DILUPBiCG:  Solving for Ux, Initial residual = 0.11464645, Final residual = 2.5982707e-05, No Iterations 2
DILUPBiCG:  Solving for Uy, Initial residual = 2.58921e-05, Final residual = 6.278302e-09, No Iterations 2
DILUPBiCG:  Solving for Uz, Initial residual = 0.047217436, Final residual = 7.3555029e-06, No Iterations 2
DILUPBiCG:  Solving for h, Initial residual = 0.015109732, Final residual = 6.6486506e-05, No Iterations 3
MACARENA
GAMG:  Solving for p_rgh, Initial residual = 0.0046782786, Final residual = 5.6934072e-05, No Iterations 2
MACARENA
MACARENA
time step continuity errors : sum local = 3.2451457e-06, global = -8.1695137e-07, cumulative = 2.6419921e-06
ExecutionTime = 0.4 s  ClockTime = 0 s
Inflow      : -7.6402269e-08 [kg/s]
Outflow     : -7.7083606e-08 [kg/s]
EnergyInflow  : -0.022573983 [W]
EnergyOutflow : -0.022775292 [W]
rho max/avg/min : 1.2016452 1.2015412 1.2014375
T   max/avg/min : 293.70027 293.70005 293.7
P   max/avg/min : 101324.91 101316.16 101307.41
Prg max/avg/min : 101325 101325 101325
U   max/avg/min : 0 -3.4862599e-05 -0.00016585141
Prg max-min : 0.001539797
 
Iteration Number = 11

DILUPBiCG:  Solving for Ux, Initial residual = 0.16520067, Final residual = 4.2152985e-05, No Iterations 2
DILUPBiCG:  Solving for Uy, Initial residual = 2.1570671e-05, Final residual = 4.4434657e-09, No Iterations 2
DILUPBiCG:  Solving for Uz, Initial residual = 0.038556622, Final residual = 6.2383843e-06, No Iterations 2
DILUPBiCG:  Solving for h, Initial residual = 0.013768629, Final residual = 4.6047865e-05, No Iterations 3
MACARENA
GAMG:  Solving for p_rgh, Initial residual = 0.003337222, Final residual = 2.1758602e-05, No Iterations 2
MACARENA
MACARENA
time step continuity errors : sum local = 1.2272127e-06, global = -4.6415765e-07, cumulative = 2.1778345e-06
ExecutionTime = 0.43 s  ClockTime = 0 s
Inflow      : -6.5680937e-08 [kg/s]
Outflow     : -6.6068045e-08 [kg/s]
EnergyInflow  : -0.019406234 [W]
EnergyOutflow : -0.01952061 [W]
rho max/avg/min : 1.2016452 1.2015412 1.2014375
T   max/avg/min : 293.70027 293.70005 293.7
P   max/avg/min : 101324.91 101316.16 101307.41
Prg max/avg/min : 101325 101325 101325
U   max/avg/min : 0 -3.144896e-05 -0.00014935307
Prg max-min : 0.0015401206
 
Iteration Number = 12

DILUPBiCG:  Solving for Ux, Initial residual = 0.15126404, Final residual = 3.6129168e-05, No Iterations 2
DILUPBiCG:  Solving for Uy, Initial residual = 1.918327e-05, Final residual = 4.1689045e-09, No Iterations 2
DILUPBiCG:  Solving for Uz, Initial residual = 0.044391981, Final residual = 7.0397917e-06, No Iterations 2
DILUPBiCG:  Solving for h, Initial residual = 0.013074324, Final residual = 5.097876e-05, No Iterations 3
MACARENA
GAMG:  Solving for p_rgh, Initial residual = 0.003474153, Final residual = 2.1456334e-05, No Iterations 2
MACARENA
MACARENA
time step continuity errors : sum local = 1.2281607e-06, global = -2.7673235e-07, cumulative = 1.9011021e-06
ExecutionTime = 0.46 s  ClockTime = 0 s
Inflow      : -5.675264e-08 [kg/s]
Outflow     : -5.6983435e-08 [kg/s]
EnergyInflow  : -0.01676826 [W]
EnergyOutflow : -0.016836451 [W]
rho max/avg/min : 1.2016452 1.2015412 1.2014375
T   max/avg/min : 293.70027 293.70006 293.7
P   max/avg/min : 101324.91 101316.16 101307.41
Prg max/avg/min : 101325 101325 101325
U   max/avg/min : 0 -2.8260322e-05 -0.0001264594
Prg max-min : 0.0015366368
 
Iteration Number = 13

DILUPBiCG:  Solving for Ux, Initial residual = 0.14922266, Final residual = 3.5023705e-05, No Iterations 2
DILUPBiCG:  Solving for Uy, Initial residual = 2.0392045e-05, Final residual = 4.6405918e-09, No Iterations 2
DILUPBiCG:  Solving for Uz, Initial residual = 0.04290776, Final residual = 6.9483211e-06, No Iterations 2
DILUPBiCG:  Solving for h, Initial residual = 0.012472912, Final residual = 6.1116713e-05, No Iterations 3
MACARENA
GAMG:  Solving for p_rgh, Initial residual = 0.0034679078, Final residual = 3.0228646e-05, No Iterations 2
MACARENA
MACARENA
time step continuity errors : sum local = 1.7188383e-06, global = -4.7321695e-07, cumulative = 1.4278852e-06
ExecutionTime = 0.5 s  ClockTime = 1 s
Inflow      : -4.9031755e-08 [kg/s]
Outflow     : -4.9426418e-08 [kg/s]
EnergyInflow  : -0.01448703 [W]
EnergyOutflow : -0.014603638 [W]
rho max/avg/min : 1.2016452 1.2015412 1.2014375
T   max/avg/min : 293.70027 293.70006 293.7
P   max/avg/min : 101324.91 101316.16 101307.41
Prg max/avg/min : 101325 101325 101325
U   max/avg/min : 0 -2.5669883e-05 -0.00010845526
Prg max-min : 0.0015322891
 
Iteration Number = 14

DILUPBiCG:  Solving for Ux, Initial residual = 0.11325892, Final residual = 2.2329721e-05, No Iterations 2
DILUPBiCG:  Solving for Uy, Initial residual = 1.8112534e-05, Final residual = 3.6326738e-09, No Iterations 2
DILUPBiCG:  Solving for Uz, Initial residual = 0.03777576, Final residual = 6.3450908e-06, No Iterations 2
DILUPBiCG:  Solving for h, Initial residual = 0.011898084, Final residual = 6.6311871e-05, No Iterations 3
MACARENA
GAMG:  Solving for p_rgh, Initial residual = 0.0029562753, Final residual = 1.3687646e-05, No Iterations 2
MACARENA
MACARENA
time step continuity errors : sum local = 7.7569131e-07, global = -1.7216765e-07, cumulative = 1.2557175e-06
ExecutionTime = 0.54 s  ClockTime = 1 s
Inflow      : -4.2981953e-08 [kg/s]
Outflow     : -4.3125541e-08 [kg/s]
EnergyInflow  : -0.012699542 [W]
EnergyOutflow : -0.012741967 [W]
rho max/avg/min : 1.2016452 1.2015412 1.2014376
T   max/avg/min : 293.70026 293.70006 293.7
P   max/avg/min : 101324.91 101316.16 101307.41
Prg max/avg/min : 101325 101325 101325
U   max/avg/min : 0 -2.3645786e-05 -9.4913731e-05
Prg max-min : 0.0015292153
 
Iteration Number = 15

DILUPBiCG:  Solving for Ux, Initial residual = 0.11762278, Final residual = 2.7822158e-05, No Iterations 2
DILUPBiCG:  Solving for Uy, Initial residual = 1.7621927e-05, Final residual = 3.3159876e-09, No Iterations 2
DILUPBiCG:  Solving for Uz, Initial residual = 0.033890512, Final residual = 5.8487901e-06, No Iterations 2
DILUPBiCG:  Solving for h, Initial residual = 0.011410053, Final residual = 6.4978218e-05, No Iterations 3
MACARENA
GAMG:  Solving for p_rgh, Initial residual = 0.0027133708, Final residual = 2.2271425e-05, No Iterations 2
MACARENA
MACARENA
time step continuity errors : sum local = 1.2332371e-06, global = -3.9884515e-07, cumulative = 8.5687238e-07
ExecutionTime = 0.56 s  ClockTime = 1 s
Inflow      : -3.74927e-08 [kg/s]
Outflow     : -3.7825337e-08 [kg/s]
EnergyInflow  : -0.011077676 [W]
EnergyOutflow : -0.011175957 [W]
rho max/avg/min : 1.2016452 1.2015412 1.2014376
T   max/avg/min : 293.70026 293.70006 293.7
P   max/avg/min : 101324.91 101316.16 101307.41
Prg max/avg/min : 101325 101325 101325
U   max/avg/min : 0 -2.1934023e-05 -8.3788468e-05
Prg max-min : 0.0015281065
 
Iteration Number = 16

DILUPBiCG:  Solving for Ux, Initial residual = 0.11466224, Final residual = 2.3436374e-05, No Iterations 2
DILUPBiCG:  Solving for Uy, Initial residual = 1.578457e-05, Final residual = 3.0333597e-09, No Iterations 2
DILUPBiCG:  Solving for Uz, Initial residual = 0.034097632, Final residual = 5.9053753e-06, No Iterations 2
DILUPBiCG:  Solving for h, Initial residual = 0.011081824, Final residual = 5.8395126e-05, No Iterations 3
MACARENA
GAMG:  Solving for p_rgh, Initial residual = 0.0025127602, Final residual = 1.7465607e-05, No Iterations 2
MACARENA
MACARENA
time step continuity errors : sum local = 9.8105281e-07, global = -3.017652e-07, cumulative = 5.5510718e-07
ExecutionTime = 0.59 s  ClockTime = 1 s
Inflow      : -3.3097076e-08 [kg/s]
Outflow     : -3.3348748e-08 [kg/s]
EnergyInflow  : -0.0097789349 [W]
EnergyOutflow : -0.0098532945 [W]
rho max/avg/min : 1.2016452 1.2015412 1.2014376
T   max/avg/min : 293.70025 293.70006 293.7
P   max/avg/min : 101324.91 101316.16 101307.41
Prg max/avg/min : 101325 101325 101325
U   max/avg/min : 0 -2.048276e-05 -7.7307331e-05
Prg max-min : 0.0015258786
 
Iteration Number = 17

DILUPBiCG:  Solving for Ux, Initial residual = 0.1031165, Final residual = 2.0406695e-05, No Iterations 2
DILUPBiCG:  Solving for Uy, Initial residual = 1.4534399e-05, Final residual = 2.6130038e-09, No Iterations 2
DILUPBiCG:  Solving for Uz, Initial residual = 0.030456026, Final residual = 5.4542898e-06, No Iterations 2
DILUPBiCG:  Solving for h, Initial residual = 0.010714622, Final residual = 5.0146134e-05, No Iterations 3
MACARENA
GAMG:  Solving for p_rgh, Initial residual = 0.0022225969, Final residual = 1.3849457e-05, No Iterations 2
MACARENA
MACARENA
time step continuity errors : sum local = 7.8670023e-07, global = -2.4381143e-07, cumulative = 3.1129576e-07
ExecutionTime = 0.63 s  ClockTime = 1 s
Inflow      : -2.9354126e-08 [kg/s]
Outflow     : -2.9557464e-08 [kg/s]
EnergyInflow  : -0.0086730346 [W]
EnergyOutflow : -0.0087331135 [W]
rho max/avg/min : 1.2016452 1.2015412 1.2014376
T   max/avg/min : 293.70025 293.70006 293.7
P   max/avg/min : 101324.91 101316.16 101307.41
Prg max/avg/min : 101325 101325 101325
U   max/avg/min : 0 -1.9304227e-05 -7.2347293e-05
Prg max-min : 0.0015245909
 
Iteration Number = 18

DILUPBiCG:  Solving for Ux, Initial residual = 0.096258605, Final residual = 2.1700018e-05, No Iterations 2
DILUPBiCG:  Solving for Uy, Initial residual = 1.2917388e-05, Final residual = 2.4501115e-09, No Iterations 2
DILUPBiCG:  Solving for Uz, Initial residual = 0.028518631, Final residual = 5.1761768e-06, No Iterations 2
DILUPBiCG:  Solving for h, Initial residual = 0.010408108, Final residual = 4.8769555e-05, No Iterations 3
MACARENA
GAMG:  Solving for p_rgh, Initial residual = 0.0020165006, Final residual = 2.0001084e-05, No Iterations 2
MACARENA
MACARENA
time step continuity errors : sum local = 1.1149684e-06, global = -3.3214183e-07, cumulative = -2.0846079e-08
ExecutionTime = 0.67 s  ClockTime = 1 s
Inflow      : -2.6049076e-08 [kg/s]
Outflow     : -2.6326082e-08 [kg/s]
EnergyInflow  : -0.0076965173 [W]
EnergyOutflow : -0.0077783621 [W]
rho max/avg/min : 1.2016452 1.2015412 1.2014376
T   max/avg/min : 293.70024 293.70006 293.7
P   max/avg/min : 101324.91 101316.16 101307.41
Prg max/avg/min : 101325 101325 101325
U   max/avg/min : 0 -1.8288335e-05 -6.7854988e-05
Prg max-min : 0.0015238022
 
Iteration Number = 19

DILUPBiCG:  Solving for Ux, Initial residual = 0.10108102, Final residual = 2.1233275e-05, No Iterations 2
DILUPBiCG:  Solving for Uy, Initial residual = 1.1761386e-05, Final residual = 2.3614447e-09, No Iterations 2
DILUPBiCG:  Solving for Uz, Initial residual = 0.027531601, Final residual = 5.0219566e-06, No Iterations 2
DILUPBiCG:  Solving for h, Initial residual = 0.010149923, Final residual = 4.9320999e-05, No Iterations 3
MACARENA
GAMG:  Solving for p_rgh, Initial residual = 0.0019409993, Final residual = 1.4257446e-05, No Iterations 2
MACARENA
MACARENA
time step continuity errors : sum local = 8.2021399e-07, global = -2.6719055e-07, cumulative = -2.8803663e-07
ExecutionTime = 0.7 s  ClockTime = 1 s
Inflow      : -2.3336277e-08 [kg/s]
Outflow     : -2.3559114e-08 [kg/s]
EnergyInflow  : -0.0068949878 [W]
EnergyOutflow : -0.0069608277 [W]
rho max/avg/min : 1.2016452 1.2015412 1.2014376
T   max/avg/min : 293.70024 293.70006 293.7
P   max/avg/min : 101324.91 101316.16 101307.41
Prg max/avg/min : 101325 101325 101325
U   max/avg/min : 0 -1.7439313e-05 -6.3880701e-05
Prg max-min : 0.0015225398
 
Iteration Number = 20

DILUPBiCG:  Solving for Ux, Initial residual = 0.088643479, Final residual = 2.0149894e-05, No Iterations 2
DILUPBiCG:  Solving for Uy, Initial residual = 1.0771654e-05, Final residual = 1.9771179e-09, No Iterations 2
DILUPBiCG:  Solving for Uz, Initial residual = 0.024315674, Final residual = 4.5665427e-06, No Iterations 2
DILUPBiCG:  Solving for h, Initial residual = 0.0098774659, Final residual = 4.8313757e-05, No Iterations 3
MACARENA
GAMG:  Solving for p_rgh, Initial residual = 0.0016830961, Final residual = 2.0075383e-05, No Iterations 2
MACARENA
MACARENA
time step continuity errors : sum local = 1.1075395e-06, global = -3.0143088e-07, cumulative = -5.8946751e-07
ExecutionTime = 0.73 s  ClockTime = 1 s
Inflow      : -2.0930139e-08 [kg/s]
Outflow     : -2.1181532e-08 [kg/s]
EnergyInflow  : -0.0061840648 [W]
EnergyOutflow : -0.006258342 [W]
rho max/avg/min : 1.2016452 1.2015412 1.2014376
T   max/avg/min : 293.70023 293.70006 293.7
P   max/avg/min : 101324.91 101316.16 101307.41
Prg max/avg/min : 101325 101325 101325
U   max/avg/min : 0 -1.6728417e-05 -6.0699085e-05
Prg max-min : 0.0015221007
 
Iteration Number = 21

DILUPBiCG:  Solving for Ux, Initial residual = 0.08092591, Final residual = 1.7926539e-05, No Iterations 2
DILUPBiCG:  Solving for Uy, Initial residual = 1.0362102e-05, Final residual = 1.849553e-09, No Iterations 2
DILUPBiCG:  Solving for Uz, Initial residual = 0.023301137, Final residual = 4.3533671e-06, No Iterations 2
DILUPBiCG:  Solving for h, Initial residual = 0.0096503992, Final residual = 4.119213e-05, No Iterations 3
MACARENA
GAMG:  Solving for p_rgh, Initial residual = 0.0015420884, Final residual = 1.468143e-05, No Iterations 2
MACARENA
MACARENA
time step continuity errors : sum local = 8.152698e-07, global = -2.3379843e-07, cumulative = -8.2326593e-07
ExecutionTime = 0.78 s  ClockTime = 1 s
Inflow      : -1.8932127e-08 [kg/s]
Outflow     : -1.9127114e-08 [kg/s]
EnergyInflow  : -0.0055937277 [W]
EnergyOutflow : -0.0056513393 [W]
rho max/avg/min : 1.2016452 1.2015412 1.2014376
T   max/avg/min : 293.70023 293.70006 293.7
P   max/avg/min : 101324.91 101316.16 101307.41
Prg max/avg/min : 101325 101325 101325
U   max/avg/min : 0 -1.6115437e-05 -5.7753544e-05
Prg max-min : 0.0015214123
 
Iteration Number = 22

DILUPBiCG:  Solving for Ux, Initial residual = 0.082901505, Final residual = 1.6889506e-05, No Iterations 2
DILUPBiCG:  Solving for Uy, Initial residual = 9.8089291e-06, Final residual = 1.7098341e-09, No Iterations 2
DILUPBiCG:  Solving for Uz, Initial residual = 0.021084855, Final residual = 3.9919268e-06, No Iterations 2
DILUPBiCG:  Solving for h, Initial residual = 0.0094319143, Final residual = 3.4899916e-05, No Iterations 3
MACARENA
GAMG:  Solving for p_rgh, Initial residual = 0.0014345833, Final residual = 2.0832421e-05, No Iterations 2
MACARENA
MACARENA
time step continuity errors : sum local = 1.1438428e-06, global = -2.7138652e-07, cumulative = -1.0946525e-06
ExecutionTime = 0.81 s  ClockTime = 1 s
Inflow      : -1.711931e-08 [kg/s]
Outflow     : -1.7345646e-08 [kg/s]
EnergyInflow  : -0.005058109 [W]
EnergyOutflow : -0.0051249828 [W]
rho max/avg/min : 1.2016452 1.2015412 1.2014376
T   max/avg/min : 293.70022 293.70006 293.7
P   max/avg/min : 101324.91 101316.16 101307.41
Prg max/avg/min : 101325 101325 101325
U   max/avg/min : 0 -1.5590295e-05 -5.5756931e-05
Prg max-min : 0.0015210948
 
Iteration Number = 23

DILUPBiCG:  Solving for Ux, Initial residual = 0.087144555, Final residual = 1.837207e-05, No Iterations 2
DILUPBiCG:  Solving for Uy, Initial residual = 9.9965409e-06, Final residual = 1.7190602e-09, No Iterations 2
DILUPBiCG:  Solving for Uz, Initial residual = 0.019928479, Final residual = 3.7501045e-06, No Iterations 2
DILUPBiCG:  Solving for h, Initial residual = 0.0092408929, Final residual = 3.1277121e-05, No Iterations 3
MACARENA
GAMG:  Solving for p_rgh, Initial residual = 0.0013313553, Final residual = 1.3635126e-05, No Iterations 2
MACARENA
MACARENA
time step continuity errors : sum local = 7.6095697e-07, global = -2.1292804e-07, cumulative = -1.3075805e-06
ExecutionTime = 0.84 s  ClockTime = 1 s
Inflow      : -1.5617478e-08 [kg/s]
Outflow     : -1.579506e-08 [kg/s]
EnergyInflow  : -0.0046143744 [W]
EnergyOutflow : -0.0046668432 [W]
rho max/avg/min : 1.2016452 1.2015412 1.2014376
T   max/avg/min : 293.70022 293.70006 293.7
P   max/avg/min : 101324.91 101316.16 101307.41
Prg max/avg/min : 101325 101325 101325
U   max/avg/min : 0 -1.5143388e-05 -5.4481995e-05
Prg max-min : 0.001520573
 
Iteration Number = 24

DILUPBiCG:  Solving for Ux, Initial residual = 0.080196245, Final residual = 1.8652531e-05, No Iterations 2
DILUPBiCG:  Solving for Uy, Initial residual = 9.692984e-06, Final residual = 9.125567e-08, No Iterations 1
DILUPBiCG:  Solving for Uz, Initial residual = 0.017686356, Final residual = 3.3714168e-06, No Iterations 2
DILUPBiCG:  Solving for h, Initial residual = 0.009032796, Final residual = 3.1425389e-05, No Iterations 3
MACARENA
GAMG:  Solving for p_rgh, Initial residual = 0.0011630868, Final residual = 2.0809042e-05, No Iterations 2
MACARENA
MACARENA
time step continuity errors : sum local = 1.1441119e-06, global = -2.3807363e-07, cumulative = -1.5456541e-06
ExecutionTime = 0.87 s  ClockTime = 1 s
Inflow      : -1.4240276e-08 [kg/s]
Outflow     : -1.4438829e-08 [kg/s]
EnergyInflow  : -0.0042074632 [W]
EnergyOutflow : -0.0042661281 [W]
rho max/avg/min : 1.2016452 1.2015412 1.2014376
T   max/avg/min : 293.70022 293.70006 293.7
P   max/avg/min : 101324.91 101316.16 101307.41
Prg max/avg/min : 101325 101325 101325
U   max/avg/min : 0 -1.4761407e-05 -5.3192265e-05
Prg max-min : 0.0015204126
 
Iteration Number = 25

DILUPBiCG:  Solving for Ux, Initial residual = 0.072048104, Final residual = 1.5218446e-05, No Iterations 2
DILUPBiCG:  Solving for Uy, Initial residual = 9.6606613e-06, Final residual = 9.9187142e-08, No Iterations 1
DILUPBiCG:  Solving for Uz, Initial residual = 0.01661246, Final residual = 3.1188045e-06, No Iterations 2
DILUPBiCG:  Solving for h, Initial residual = 0.0088727966, Final residual = 2.7126044e-05, No Iterations 3
MACARENA
GAMG:  Solving for p_rgh, Initial residual = 0.0010631603, Final residual = 1.6692564e-05, No Iterations 2
MACARENA
MACARENA
time step continuity errors : sum local = 9.2473639e-07, global = -2.2480934e-07, cumulative = -1.7704635e-06
ExecutionTime = 0.91 s  ClockTime = 1 s
Inflow      : -1.3063937e-08 [kg/s]
Outflow     : -1.3251428e-08 [kg/s]
EnergyInflow  : -0.0038598996 [W]
EnergyOutflow : -0.0039152961 [W]
rho max/avg/min : 1.2016452 1.2015412 1.2014376
T   max/avg/min : 293.70021 293.70006 293.7
P   max/avg/min : 101324.91 101316.16 101307.41
Prg max/avg/min : 101325 101325 101325
U   max/avg/min : 0 -1.4422565e-05 -5.2299567e-05
Prg max-min : 0.0015201895
 
Iteration Number = 26

DILUPBiCG:  Solving for Ux, Initial residual = 0.068888676, Final residual = 1.523582e-05, No Iterations 2
DILUPBiCG:  Solving for Uy, Initial residual = 9.3692958e-06, Final residual = 8.8162219e-08, No Iterations 1
DILUPBiCG:  Solving for Uz, Initial residual = 0.015163308, Final residual = 2.8284003e-06, No Iterations 2
DILUPBiCG:  Solving for h, Initial residual = 0.008705535, Final residual = 2.591023e-05, No Iterations 3
MACARENA
GAMG:  Solving for p_rgh, Initial residual = 0.00098887475, Final residual = 1.385741e-05, No Iterations 2
MACARENA
MACARENA
time step continuity errors : sum local = 7.580905e-07, global = -1.8303009e-07, cumulative = -1.9534935e-06
ExecutionTime = 0.94 s  ClockTime = 1 s
Inflow      : -1.2049275e-08 [kg/s]
Outflow     : -1.2201922e-08 [kg/s]
EnergyInflow  : -0.0035601052 [W]
EnergyOutflow : -0.0036052067 [W]
rho max/avg/min : 1.2016452 1.2015412 1.2014376
T   max/avg/min : 293.70021 293.70006 293.7
P   max/avg/min : 101324.91 101316.16 101307.41
Prg max/avg/min : 101325 101325 101325
U   max/avg/min : 0 -1.4135727e-05 -5.1470135e-05
Prg max-min : 0.0015199303
 
Iteration Number = 27

DILUPBiCG:  Solving for Ux, Initial residual = 0.063989429, Final residual = 1.4905629e-05, No Iterations 2
DILUPBiCG:  Solving for Uy, Initial residual = 8.5093791e-06, Final residual = 7.5955275e-08, No Iterations 1
DILUPBiCG:  Solving for Uz, Initial residual = 0.013512134, Final residual = 2.5130031e-06, No Iterations 2
DILUPBiCG:  Solving for h, Initial residual = 0.0085401793, Final residual = 2.5920421e-05, No Iterations 3
MACARENA
GAMG:  Solving for p_rgh, Initial residual = 0.00089688347, Final residual = 2.0669414e-05, No Iterations 2
MACARENA
MACARENA
time step continuity errors : sum local = 1.1409548e-06, global = -1.8351117e-07, cumulative = -2.1370047e-06
ExecutionTime = 0.97 s  ClockTime = 1 s
Inflow      : -1.1118826e-08 [kg/s]
Outflow     : -1.1271874e-08 [kg/s]
EnergyInflow  : -0.0032851927 [W]
EnergyOutflow : -0.0033304126 [W]
rho max/avg/min : 1.2016452 1.2015412 1.2014376
T   max/avg/min : 293.7002 293.70006 293.7
P   max/avg/min : 101324.91 101316.16 101307.41
Prg max/avg/min : 101325 101325 101325
U   max/avg/min : 7.0988249e-07 -1.3885058e-05 -5.0670343e-05
Prg max-min : 0.0015199
 
Iteration Number = 28

DILUPBiCG:  Solving for Ux, Initial residual = 0.059824372, Final residual = 1.2457774e-05, No Iterations 2
DILUPBiCG:  Solving for Uy, Initial residual = 8.3025125e-06, Final residual = 7.7576502e-08, No Iterations 1
DILUPBiCG:  Solving for Uz, Initial residual = 0.012763754, Final residual = 2.3161098e-06, No Iterations 2
DILUPBiCG:  Solving for h, Initial residual = 0.0084079161, Final residual = 2.4834916e-05, No Iterations 3
MACARENA
GAMG:  Solving for p_rgh, Initial residual = 0.00083098647, Final residual = 1.8128154e-05, No Iterations 2
MACARENA
MACARENA
time step continuity errors : sum local = 1.0190643e-06, global = -1.8278809e-07, cumulative = -2.3197928e-06
ExecutionTime = 1.01 s  ClockTime = 1 s
Inflow      : -1.0296663e-08 [kg/s]
Outflow     : -1.0449108e-08 [kg/s]
EnergyInflow  : -0.0030422747 [W]
EnergyOutflow : -0.0030873165 [W]
rho max/avg/min : 1.2016452 1.2015412 1.2014376
T   max/avg/min : 293.7002 293.70006 293.7
P   max/avg/min : 101324.91 101316.16 101307.41
Prg max/avg/min : 101325 101325 101325
U   max/avg/min : 2.173601e-06 -1.3654872e-05 -4.9867407e-05
Prg max-min : 0.0015198493
 
Iteration Number = 29

DILUPBiCG:  Solving for Ux, Initial residual = 0.057184127, Final residual = 1.1887185e-05, No Iterations 2
DILUPBiCG:  Solving for Uy, Initial residual = 8.1921346e-06, Final residual = 7.016532e-08, No Iterations 1
DILUPBiCG:  Solving for Uz, Initial residual = 0.011925805, Final residual = 2.1259628e-06, No Iterations 2
DILUPBiCG:  Solving for h, Initial residual = 0.0082768067, Final residual = 2.4476793e-06, No Iterations 5
MACARENA
GAMG:  Solving for p_rgh, Initial residual = 0.00078018758, Final residual = 1.4317035e-05, No Iterations 2
MACARENA
MACARENA
time step continuity errors : sum local = 7.9904187e-07, global = -1.6697781e-07, cumulative = -2.4867706e-06
ExecutionTime = 1.04 s  ClockTime = 1 s
Inflow      : -9.5759445e-09 [kg/s]
Outflow     : -9.7152039e-09 [kg/s]
EnergyInflow  : -0.0028293296 [W]
EnergyOutflow : -0.0028704755 [W]
rho max/avg/min : 1.2016452 1.2015412 1.2014376
T   max/avg/min : 293.7002 293.70006 293.7
P   max/avg/min : 101324.91 101316.16 101307.41
Prg max/avg/min : 101325 101325 101325
U   max/avg/min : 3.522321e-06 -1.3452084e-05 -4.9100789e-05
Prg max-min : 0.0015197406
 
Iteration Number = 30

DILUPBiCG:  Solving for Ux, Initial residual = 0.0578782, Final residual = 1.3598609e-05, No Iterations 2
DILUPBiCG:  Solving for Uy, Initial residual = 7.8683123e-06, Final residual = 6.9072254e-08, No Iterations 1
DILUPBiCG:  Solving for Uz, Initial residual = 0.010826898, Final residual = 1.9108506e-06, No Iterations 2
DILUPBiCG:  Solving for h, Initial residual = 0.0081457176, Final residual = 2.1815193e-05, No Iterations 3
MACARENA
GAMG:  Solving for p_rgh, Initial residual = 0.00071650422, Final residual = 1.4137055e-05, No Iterations 2
MACARENA
MACARENA
time step continuity errors : sum local = 7.9256389e-07, global = -1.5593124e-07, cumulative = -2.6427019e-06
ExecutionTime = 1.08 s  ClockTime = 1 s
Inflow      : -8.9271657e-09 [kg/s]
Outflow     : -9.0572123e-09 [kg/s]
EnergyInflow  : -0.00263764 [W]
EnergyOutflow : -0.0026760639 [W]
rho max/avg/min : 1.2016452 1.2015412 1.2014376
T   max/avg/min : 293.70019 293.70006 293.7
P   max/avg/min : 101324.91 101316.16 101307.41
Prg max/avg/min : 101325 101325 101325
U   max/avg/min : 4.6269052e-06 -1.3277466e-05 -4.8491305e-05
Prg max-min : 0.0015196776
 
Iteration Number = 31

DILUPBiCG:  Solving for Ux, Initial residual = 0.053493898, Final residual = 1.1564089e-05, No Iterations 2
DILUPBiCG:  Solving for Uy, Initial residual = 7.5867596e-06, Final residual = 6.9944431e-08, No Iterations 1
DILUPBiCG:  Solving for Uz, Initial residual = 0.0099383988, Final residual = 1.724829e-06, No Iterations 2
DILUPBiCG:  Solving for h, Initial residual = 0.0080274489, Final residual = 1.7528632e-05, No Iterations 3
MACARENA
GAMG:  Solving for p_rgh, Initial residual = 0.0006681854, Final residual = 9.4313404e-05, No Iterations 1
MACARENA
MACARENA
time step continuity errors : sum local = 5.1476783e-06, global = -1.8611101e-07, cumulative = -2.8288129e-06
ExecutionTime = 1.11 s  ClockTime = 1 s
Inflow      : -8.3134308e-09 [kg/s]
Outflow     : -8.4686473e-09 [kg/s]
EnergyInflow  : -0.0024563045 [W]
EnergyOutflow : -0.0025021651 [W]
rho max/avg/min : 1.2016452 1.2015412 1.2014376
T   max/avg/min : 293.70019 293.70006 293.7
P   max/avg/min : 101324.91 101316.16 101307.41
Prg max/avg/min : 101325 101325 101325
U   max/avg/min : 5.6626038e-06 -1.3117945e-05 -4.8001731e-05
Prg max-min : 0.0015197242
 
Iteration Number = 32

DILUPBiCG:  Solving for Ux, Initial residual = 0.096756645, Final residual = 2.2688652e-05, No Iterations 2
DILUPBiCG:  Solving for Uy, Initial residual = 7.0854615e-06, Final residual = 6.2903624e-08, No Iterations 1
DILUPBiCG:  Solving for Uz, Initial residual = 0.0095381723, Final residual = 1.6223091e-06, No Iterations 2
DILUPBiCG:  Solving for h, Initial residual = 0.0079237256, Final residual = 4.1004067e-05, No Iterations 4
MACARENA
GAMG:  Solving for p_rgh, Initial residual = 0.00082046496, Final residual = 1.878676e-05, No Iterations 2
MACARENA
MACARENA
time step continuity errors : sum local = 1.0223527e-06, global = -1.8253706e-07, cumulative = -3.0113499e-06
ExecutionTime = 1.14 s  ClockTime = 1 s
Inflow      : -7.8055926e-09 [kg/s]
Outflow     : -7.9578284e-09 [kg/s]
EnergyInflow  : -0.0023062576 [W]
EnergyOutflow : -0.0023512375 [W]
rho max/avg/min : 1.2016452 1.2015412 1.2014376
T   max/avg/min : 293.70019 293.70006 293.7
P   max/avg/min : 101324.91 101316.16 101307.41
Prg max/avg/min : 101325 101325 101325
U   max/avg/min : 6.5203341e-06 -1.2971722e-05 -4.7503124e-05
Prg max-min : 0.0015196966
 
Iteration Number = 33

DILUPBiCG:  Solving for Ux, Initial residual = 0.10313195, Final residual = 2.3937079e-05, No Iterations 2
DILUPBiCG:  Solving for Uy, Initial residual = 7.200305e-06, Final residual = 6.7125989e-08, No Iterations 1
DILUPBiCG:  Solving for Uz, Initial residual = 0.0087746146, Final residual = 1.4722177e-06, No Iterations 2
DILUPBiCG:  Solving for h, Initial residual = 0.0078182105, Final residual = 1.39889e-05, No Iterations 3
MACARENA
GAMG:  Solving for p_rgh, Initial residual = 0.00057644215, Final residual = 7.2140154e-05, No Iterations 1
MACARENA
MACARENA
time step continuity errors : sum local = 3.9338722e-06, global = -2.4157303e-07, cumulative = -3.252923e-06
ExecutionTime = 1.17 s  ClockTime = 1 s
Inflow      : -7.2785484e-09 [kg/s]
Outflow     : -7.4800202e-09 [kg/s]
EnergyInflow  : -0.0021505359 [W]
EnergyOutflow : -0.0022100632 [W]
rho max/avg/min : 1.2016452 1.2015412 1.2014376
T   max/avg/min : 293.70018 293.70006 293.7
P   max/avg/min : 101324.91 101316.16 101307.41
Prg max/avg/min : 101325 101325 101325
U   max/avg/min : 7.253955e-06 -1.2839484e-05 -4.7001693e-05
Prg max-min : 0.0015197283
 
Iteration Number = 34

DILUPBiCG:  Solving for Ux, Initial residual = 0.063390205, Final residual = 1.3655945e-05, No Iterations 2
DILUPBiCG:  Solving for Uy, Initial residual = 6.7504473e-06, Final residual = 5.6455037e-08, No Iterations 1
DILUPBiCG:  Solving for Uz, Initial residual = 0.0083352123, Final residual = 1.3779792e-06, No Iterations 2
DILUPBiCG:  Solving for h, Initial residual = 0.0077290974, Final residual = 4.499512e-05, No Iterations 4
MACARENA
GAMG:  Solving for p_rgh, Initial residual = 0.00061115455, Final residual = 8.9571937e-05, No Iterations 1
MACARENA
MACARENA
time step continuity errors : sum local = 4.8756996e-06, global = -2.8339696e-07, cumulative = -3.5363199e-06
ExecutionTime = 1.21 s  ClockTime = 1 s
Inflow      : -6.8248567e-09 [kg/s]
Outflow     : -7.0612096e-09 [kg/s]
EnergyInflow  : -0.0020164872 [W]
EnergyOutflow : -0.0020863205 [W]
rho max/avg/min : 1.2016452 1.2015412 1.2014376
T   max/avg/min : 293.70018 293.70006 293.7
P   max/avg/min : 101324.91 101316.16 101307.41
Prg max/avg/min : 101325 101325 101325
U   max/avg/min : 7.9933497e-06 -1.271472e-05 -4.6500054e-05
Prg max-min : 0.0015197797
 
Iteration Number = 35

DILUPBiCG:  Solving for Ux, Initial residual = 0.056597608, Final residual = 1.3352348e-05, No Iterations 2
DILUPBiCG:  Solving for Uy, Initial residual = 6.8957074e-06, Final residual = 5.8560433e-08, No Iterations 1
DILUPBiCG:  Solving for Uz, Initial residual = 0.0079775352, Final residual = 1.3029492e-06, No Iterations 2
DILUPBiCG:  Solving for h, Initial residual = 0.0076435695, Final residual = 6.8952475e-06, No Iterations 5
MACARENA
GAMG:  Solving for p_rgh, Initial residual = 0.00060431214, Final residual = 9.9336588e-05, No Iterations 1
MACARENA
MACARENA
time step continuity errors : sum local = 5.4179222e-06, global = -3.649354e-07, cumulative = -3.9012553e-06
ExecutionTime = 1.25 s  ClockTime = 1 s
Inflow      : -6.3800861e-09 [kg/s]
Outflow     : -6.684442e-09 [kg/s]
EnergyInflow  : -0.0018850743 [W]
EnergyOutflow : -0.001975 [W]
rho max/avg/min : 1.2016452 1.2015412 1.2014376
T   max/avg/min : 293.70018 293.70006 293.7
P   max/avg/min : 101324.91 101316.16 101307.41
Prg max/avg/min : 101325 101325 101325
U   max/avg/min : 8.7913982e-06 -1.2596358e-05 -4.5993296e-05
Prg max-min : 0.0015198273
 
Iteration Number = 36

DILUPBiCG:  Solving for Ux, Initial residual = 0.038395482, Final residual = 8.9759249e-06, No Iterations 2
DILUPBiCG:  Solving for Uy, Initial residual = 6.9029325e-06, Final residual = 5.4073434e-08, No Iterations 1
DILUPBiCG:  Solving for Uz, Initial residual = 0.0076095751, Final residual = 1.2236536e-06, No Iterations 2
DILUPBiCG:  Solving for h, Initial residual = 0.0075663452, Final residual = 5.6487362e-06, No Iterations 5
MACARENA
GAMG:  Solving for p_rgh, Initial residual = 0.00053963732, Final residual = 8.4328644e-05, No Iterations 1
MACARENA
MACARENA
time step continuity errors : sum local = 4.6013885e-06, global = -4.3316326e-07, cumulative = -4.3344186e-06
ExecutionTime = 1.28 s  ClockTime = 1 s
Inflow      : -5.9799195e-09 [kg/s]
Outflow     : -6.3411774e-09 [kg/s]
EnergyInflow  : -0.0017668402 [W]
EnergyOutflow : -0.0018735782 [W]
rho max/avg/min : 1.2016452 1.2015412 1.2014376
T   max/avg/min : 293.70018 293.70006 293.7
P   max/avg/min : 101324.91 101316.16 101307.41
Prg max/avg/min : 101325 101325 101325
U   max/avg/min : 9.6406104e-06 -1.2486739e-05 -4.5509475e-05
Prg max-min : 0.0015198516
 
Iteration Number = 37

DILUPBiCG:  Solving for Ux, Initial residual = 0.053508212, Final residual = 1.2958279e-05, No Iterations 2
DILUPBiCG:  Solving for Uy, Initial residual = 6.1632969e-06, Final residual = 5.017655e-08, No Iterations 1
DILUPBiCG:  Solving for Uz, Initial residual = 0.0071457732, Final residual = 1.1403129e-06, No Iterations 2
DILUPBiCG:  Solving for h, Initial residual = 0.0074950353, Final residual = 3.4035182e-05, No Iterations 4
MACARENA
GAMG:  Solving for p_rgh, Initial residual = 0.00047211023, Final residual = 6.7225033e-05, No Iterations 1
MACARENA
MACARENA
time step continuity errors : sum local = 3.6642893e-06, global = -3.843485e-07, cumulative = -4.7187671e-06
ExecutionTime = 1.31 s  ClockTime = 1 s
Inflow      : -5.7040777e-09 [kg/s]
Outflow     : -6.0246241e-09 [kg/s]
EnergyInflow  : -0.0016853393 [W]
EnergyOutflow : -0.0017800487 [W]
rho max/avg/min : 1.2016452 1.2015412 1.2014376
T   max/avg/min : 293.70017 293.70006 293.7
P   max/avg/min : 101324.91 101316.16 101307.41
Prg max/avg/min : 101325 101325 101325
U   max/avg/min : 1.0374895e-05 -1.2389754e-05 -4.5035752e-05
Prg max-min : 0.0015198475
 
Iteration Number = 38

DILUPBiCG:  Solving for Ux, Initial residual = 0.049215713, Final residual = 1.2452968e-05, No Iterations 2
DILUPBiCG:  Solving for Uy, Initial residual = 6.1477545e-06, Final residual = 5.179214e-08, No Iterations 1
DILUPBiCG:  Solving for Uz, Initial residual = 0.0065882418, Final residual = 1.0290209e-06, No Iterations 2
DILUPBiCG:  Solving for h, Initial residual = 0.0074201861, Final residual = 3.9979947e-05, No Iterations 3
MACARENA
GAMG:  Solving for p_rgh, Initial residual = 0.00046123648, Final residual = 6.0614017e-05, No Iterations 1
MACARENA
MACARENA
time step continuity errors : sum local = 3.31703e-06, global = -3.7921075e-07, cumulative = -5.0979778e-06
ExecutionTime = 1.34 s  ClockTime = 1 s
Inflow      : -5.4088011e-09 [kg/s]
Outflow     : -5.7250627e-09 [kg/s]
EnergyInflow  : -0.0015980963 [W]
EnergyOutflow : -0.0016915396 [W]
rho max/avg/min : 1.2016452 1.2015412 1.2014376
T   max/avg/min : 293.70017 293.70006 293.7
P   max/avg/min : 101324.91 101316.16 101307.41
Prg max/avg/min : 101325 101325 101325
U   max/avg/min : 1.0981342e-05 -1.2307156e-05 -4.4588996e-05
Prg max-min : 0.0015198426
 
Iteration Number = 39

DILUPBiCG:  Solving for Ux, Initial residual = 0.036815446, Final residual = 7.3939901e-06, No Iterations 2
DILUPBiCG:  Solving for Uy, Initial residual = 6.0525026e-06, Final residual = 5.0460847e-08, No Iterations 1
DILUPBiCG:  Solving for Uz, Initial residual = 0.0060389907, Final residual = 9.182656e-07, No Iterations 2
DILUPBiCG:  Solving for h, Initial residual = 0.0073455192, Final residual = 3.28091e-05, No Iterations 3
MACARENA
GAMG:  Solving for p_rgh, Initial residual = 0.00043663875, Final residual = 6.2238259e-05, No Iterations 1
MACARENA
MACARENA
time step continuity errors : sum local = 3.3974569e-06, global = -3.7123736e-07, cumulative = -5.4692152e-06
ExecutionTime = 1.37 s  ClockTime = 1 s
Inflow      : -5.1538376e-09 [kg/s]
Outflow     : -5.4634493e-09 [kg/s]
EnergyInflow  : -0.0015227642 [W]
EnergyOutflow : -0.0016142428 [W]
rho max/avg/min : 1.2016452 1.2015412 1.2014376
T   max/avg/min : 293.70017 293.70006 293.7
P   max/avg/min : 101324.91 101316.16 101307.41
Prg max/avg/min : 101325 101325 101325
U   max/avg/min : 1.1456005e-05 -1.2237131e-05 -4.4278141e-05
Prg max-min : 0.0015198595
 
Iteration Number = 40

DILUPBiCG:  Solving for Ux, Initial residual = 0.031612455, Final residual = 6.9278111e-06, No Iterations 2
DILUPBiCG:  Solving for Uy, Initial residual = 5.9836763e-06, Final residual = 4.9179455e-08, No Iterations 1
DILUPBiCG:  Solving for Uz, Initial residual = 0.0055687476, Final residual = 8.171019e-07, No Iterations 2
DILUPBiCG:  Solving for h, Initial residual = 0.0072753995, Final residual = 2.8731598e-05, No Iterations 3
MACARENA
GAMG:  Solving for p_rgh, Initial residual = 0.00040465958, Final residual = 6.0669459e-05, No Iterations 1
MACARENA
MACARENA
time step continuity errors : sum local = 3.3086472e-06, global = -2.994616e-07, cumulative = -5.7686768e-06
ExecutionTime = 1.41 s  ClockTime = 1 s
Inflow      : -4.9702523e-09 [kg/s]
Outflow     : -5.2200031e-09 [kg/s]
EnergyInflow  : -0.0014685217 [W]
EnergyOutflow : -0.0015423136 [W]
rho max/avg/min : 1.2016452 1.2015412 1.2014376
T   max/avg/min : 293.70017 293.70006 293.7
P   max/avg/min : 101324.91 101316.16 101307.41
Prg max/avg/min : 101325 101325 101325
U   max/avg/min : 1.1804328e-05 -1.217692e-05 -4.3963023e-05
Prg max-min : 0.0015198872
 
Iteration Number = 41

DILUPBiCG:  Solving for Ux, Initial residual = 0.033509244, Final residual = 7.1699214e-06, No Iterations 2
DILUPBiCG:  Solving for Uy, Initial residual = 5.8813185e-06, Final residual = 4.7350493e-08, No Iterations 1
DILUPBiCG:  Solving for Uz, Initial residual = 0.0051914528, Final residual = 7.1297096e-07, No Iterations 2
DILUPBiCG:  Solving for h, Initial residual = 0.0072044176, Final residual = 2.2853079e-05, No Iterations 3
MACARENA
GAMG:  Solving for p_rgh, Initial residual = 0.00036247547, Final residual = 5.7069835e-05, No Iterations 1
MACARENA
MACARENA
time step continuity errors : sum local = 3.1063731e-06, global = -2.9723748e-07, cumulative = -6.0659143e-06
ExecutionTime = 1.43 s  ClockTime = 1 s
Inflow      : -4.761995e-09 [kg/s]
Outflow     : -5.0098909e-09 [kg/s]
EnergyInflow  : -0.0014069895 [W]
EnergyOutflow : -0.0014802334 [W]
rho max/avg/min : 1.2016452 1.2015412 1.2014376
T   max/avg/min : 293.70016 293.70006 293.7
P   max/avg/min : 101324.91 101316.16 101307.41
Prg max/avg/min : 101325 101325 101325
U   max/avg/min : 1.2060792e-05 -1.2124022e-05 -4.3647471e-05
Prg max-min : 0.0015199285
 
Iteration Number = 42

DILUPBiCG:  Solving for Ux, Initial residual = 0.030085138, Final residual = 6.9946678e-06, No Iterations 2
DILUPBiCG:  Solving for Uy, Initial residual = 5.4258966e-06, Final residual = 4.6072265e-08, No Iterations 1
DILUPBiCG:  Solving for Uz, Initial residual = 0.004882318, Final residual = 6.3058999e-07, No Iterations 2
DILUPBiCG:  Solving for h, Initial residual = 0.0071350793, Final residual = 2.1239585e-05, No Iterations 3
MACARENA
GAMG:  Solving for p_rgh, Initial residual = 0.00032661073, Final residual = 5.2366927e-05, No Iterations 1
MACARENA
MACARENA
time step continuity errors : sum local = 2.8648579e-06, global = -2.5032557e-07, cumulative = -6.3162398e-06
ExecutionTime = 1.47 s  ClockTime = 1 s
Inflow      : -4.6062831e-09 [kg/s]
Outflow     : -4.8150545e-09 [kg/s]
EnergyInflow  : -0.0013609825 [W]
EnergyOutflow : -0.0014226666 [W]
rho max/avg/min : 1.2016452 1.2015412 1.2014376
T   max/avg/min : 293.70016 293.70006 293.7
P   max/avg/min : 101324.91 101316.16 101307.41
Prg max/avg/min : 101325 101325 101325
U   max/avg/min : 1.2285096e-05 -1.2076001e-05 -4.3328923e-05
Prg max-min : 0.0015199846
 
Iteration Number = 43

DILUPBiCG:  Solving for Ux, Initial residual = 0.033294628, Final residual = 7.2704439e-06, No Iterations 2
DILUPBiCG:  Solving for Uy, Initial residual = 5.6568353e-06, Final residual = 4.730902e-08, No Iterations 1
DILUPBiCG:  Solving for Uz, Initial residual = 0.0046499513, Final residual = 5.7308448e-07, No Iterations 2
DILUPBiCG:  Solving for h, Initial residual = 0.0070745349, Final residual = 1.2976905e-05, No Iterations 3
MACARENA
GAMG:  Solving for p_rgh, Initial residual = 0.0003216241, Final residual = 4.8850236e-05, No Iterations 1
MACARENA
MACARENA
time step continuity errors : sum local = 2.6647559e-06, global = -1.7344927e-07, cumulative = -6.4896891e-06
ExecutionTime = 1.5 s  ClockTime = 2 s
Inflow      : -4.4873949e-09 [kg/s]
Outflow     : -4.6320515e-09 [kg/s]
EnergyInflow  : -0.0013258556 [W]
EnergyOutflow : -0.0013685961 [W]
rho max/avg/min : 1.2016452 1.2015412 1.2014376
T   max/avg/min : 293.70016 293.70006 293.7
P   max/avg/min : 101324.91 101316.16 101307.41
Prg max/avg/min : 101325 101325 101325
U   max/avg/min : 1.2456908e-05 -1.203091e-05 -4.3004631e-05
Prg max-min : 0.0015200482
 
Iteration Number = 44

DILUPBiCG:  Solving for Ux, Initial residual = 0.025442051, Final residual = 5.666843e-06, No Iterations 2
DILUPBiCG:  Solving for Uy, Initial residual = 5.4847865e-06, Final residual = 4.4428253e-08, No Iterations 1
DILUPBiCG:  Solving for Uz, Initial residual = 0.0044809716, Final residual = 5.2775614e-07, No Iterations 2
DILUPBiCG:  Solving for h, Initial residual = 0.0070165066, Final residual = 1.7218733e-05, No Iterations 3
MACARENA
GAMG:  Solving for p_rgh, Initial residual = 0.00027927798, Final residual = 4.6641569e-05, No Iterations 1
MACARENA
MACARENA
time step continuity errors : sum local = 2.5390945e-06, global = -8.6803603e-08, cumulative = -6.5764927e-06
ExecutionTime = 1.54 s  ClockTime = 2 s
Inflow      : -4.388343e-09 [kg/s]
Outflow     : -4.4607372e-09 [kg/s]
EnergyInflow  : -0.0012965895 [W]
EnergyOutflow : -0.0013179792 [W]
rho max/avg/min : 1.2016452 1.2015412 1.2014376
T   max/avg/min : 293.70016 293.70006 293.7
P   max/avg/min : 101324.91 101316.16 101307.41
Prg max/avg/min : 101325 101325 101325
U   max/avg/min : 1.2609803e-05 -1.1987194e-05 -4.2673247e-05
Prg max-min : 0.0015201188
 
Iteration Number = 45

DILUPBiCG:  Solving for Ux, Initial residual = 0.021351899, Final residual = 4.7965353e-06, No Iterations 2
DILUPBiCG:  Solving for Uy, Initial residual = 5.4699839e-06, Final residual = 4.5352108e-08, No Iterations 1
DILUPBiCG:  Solving for Uz, Initial residual = 0.0043590155, Final residual = 4.9344265e-07, No Iterations 2
DILUPBiCG:  Solving for h, Initial residual = 0.0069607765, Final residual = 2.0396666e-05, No Iterations 3
MACARENA
GAMG:  Solving for p_rgh, Initial residual = 0.00024831654, Final residual = 4.3438207e-05, No Iterations 1
MACARENA
MACARENA
time step continuity errors : sum local = 2.3832363e-06, global = 4.4274273e-08, cumulative = -6.5322184e-06
ExecutionTime = 1.56 s  ClockTime = 2 s
Inflow      : -4.3276907e-09 [kg/s]
Outflow     : -4.290766e-09 [kg/s]
EnergyInflow  : -0.001278669 [W]
EnergyOutflow : -0.0012677592 [W]
rho max/avg/min : 1.2016452 1.2015412 1.2014376
T   max/avg/min : 293.70016 293.70006 293.7
P   max/avg/min : 101324.91 101316.16 101307.41
Prg max/avg/min : 101325 101325 101325
U   max/avg/min : 1.2736713e-05 -1.1943276e-05 -4.2333728e-05
Prg max-min : 0.0015202008
 
Iteration Number = 46

DILUPBiCG:  Solving for Ux, Initial residual = 0.023247302, Final residual = 5.7134214e-06, No Iterations 2
DILUPBiCG:  Solving for Uy, Initial residual = 5.4164422e-06, Final residual = 4.5817278e-08, No Iterations 1
DILUPBiCG:  Solving for Uz, Initial residual = 0.0042956077, Final residual = 4.2925735e-05, No Iterations 1
DILUPBiCG:  Solving for h, Initial residual = 0.006911414, Final residual = 2.5054918e-05, No Iterations 3
MACARENA
GAMG:  Solving for p_rgh, Initial residual = 0.0002478803, Final residual = 4.0038383e-05, No Iterations 1
MACARENA
MACARENA
time step continuity errors : sum local = 2.2075272e-06, global = 9.1544761e-08, cumulative = -6.4406737e-06
ExecutionTime = 1.6 s  ClockTime = 2 s
Inflow      : -4.2225359e-09 [kg/s]
Outflow     : -4.1461876e-09 [kg/s]
EnergyInflow  : -0.0012475997 [W]
EnergyOutflow : -0.0012250417 [W]
rho max/avg/min : 1.2016452 1.2015412 1.2014376
T   max/avg/min : 293.70015 293.70006 293.7
P   max/avg/min : 101324.91 101316.16 101307.41
Prg max/avg/min : 101325 101325 101325
U   max/avg/min : 1.2831886e-05 -1.1898588e-05 -4.1990295e-05
Prg max-min : 0.001520282
 
Iteration Number = 47

DILUPBiCG:  Solving for Ux, Initial residual = 0.02487255, Final residual = 5.7151558e-06, No Iterations 2
DILUPBiCG:  Solving for Uy, Initial residual = 5.2954761e-06, Final residual = 4.1684778e-08, No Iterations 1
DILUPBiCG:  Solving for Uz, Initial residual = 0.004239796, Final residual = 4.2154863e-05, No Iterations 1
DILUPBiCG:  Solving for h, Initial residual = 0.0068684304, Final residual = 2.8937438e-05, No Iterations 3
MACARENA
GAMG:  Solving for p_rgh, Initial residual = 0.00023335082, Final residual = 3.7134622e-05, No Iterations 1
MACARENA
MACARENA
time step continuity errors : sum local = 2.0173127e-06, global = 9.0817621e-08, cumulative = -6.3498561e-06
ExecutionTime = 1.63 s  ClockTime = 2 s
Inflow      : -4.0887934e-09 [kg/s]
Outflow     : -4.0130516e-09 [kg/s]
EnergyInflow  : -0.0012080839 [W]
EnergyOutflow : -0.001185705 [W]
rho max/avg/min : 1.2016452 1.2015412 1.2014376
T   max/avg/min : 293.70015 293.70006 293.7
P   max/avg/min : 101324.91 101316.16 101307.41
Prg max/avg/min : 101325 101325 101325
U   max/avg/min : 1.2912115e-05 -1.1852281e-05 -4.1642634e-05
Prg max-min : 0.0015203641
 
Iteration Number = 48

DILUPBiCG:  Solving for Ux, Initial residual = 0.02363083, Final residual = 5.9636218e-06, No Iterations 2
DILUPBiCG:  Solving for Uy, Initial residual = 5.2384137e-06, Final residual = 4.4478238e-08, No Iterations 1
DILUPBiCG:  Solving for Uz, Initial residual = 0.0041924107, Final residual = 4.1742341e-05, No Iterations 1
DILUPBiCG:  Solving for h, Initial residual = 0.006829173, Final residual = 2.659703e-05, No Iterations 3
MACARENA
GAMG:  Solving for p_rgh, Initial residual = 0.00022157905, Final residual = 3.4402841e-05, No Iterations 1
MACARENA
MACARENA
time step continuity errors : sum local = 1.8893747e-06, global = 9.9264777e-08, cumulative = -6.2505913e-06
ExecutionTime = 1.67 s  ClockTime = 2 s
Inflow      : -3.9701577e-09 [kg/s]
Outflow     : -3.8873709e-09 [kg/s]
EnergyInflow  : -0.0011730315 [W]
EnergyOutflow : -0.0011485712 [W]
rho max/avg/min : 1.2016452 1.2015412 1.2014376
T   max/avg/min : 293.70015 293.70006 293.7
P   max/avg/min : 101324.91 101316.16 101307.41
Prg max/avg/min : 101325 101325 101325
U   max/avg/min : 1.2990379e-05 -1.1804066e-05 -4.1288112e-05
Prg max-min : 0.001520446
 
Iteration Number = 49

DILUPBiCG:  Solving for Ux, Initial residual = 0.021450604, Final residual = 4.9279963e-06, No Iterations 2
DILUPBiCG:  Solving for Uy, Initial residual = 5.1802575e-06, Final residual = 4.1047801e-08, No Iterations 1
DILUPBiCG:  Solving for Uz, Initial residual = 0.00417616, Final residual = 4.1521956e-05, No Iterations 1
DILUPBiCG:  Solving for h, Initial residual = 0.0067943945, Final residual = 3.2467913e-05, No Iterations 3
MACARENA
GAMG:  Solving for p_rgh, Initial residual = 0.00020981864, Final residual = 3.2890076e-05, No Iterations 1
MACARENA
MACARENA
time step continuity errors : sum local = 1.7960416e-06, global = 6.511313e-08, cumulative = -6.1854781e-06
ExecutionTime = 1.7 s  ClockTime = 2 s
Inflow      : -3.8219714e-09 [kg/s]
Outflow     : -3.7676671e-09 [kg/s]
EnergyInflow  : -0.0011292481 [W]
EnergyOutflow : -0.0011132032 [W]
rho max/avg/min : 1.2016452 1.2015412 1.2014376
T   max/avg/min : 293.70015 293.70006 293.7
P   max/avg/min : 101324.91 101316.16 101307.41
Prg max/avg/min : 101325 101325 101325
U   max/avg/min : 1.3064013e-05 -1.1754e-05 -4.0933636e-05
Prg max-min : 0.0015205257
 
Iteration Number = 50

DILUPBiCG:  Solving for Ux, Initial residual = 0.022652701, Final residual = 5.4037625e-06, No Iterations 2
DILUPBiCG:  Solving for Uy, Initial residual = 4.7840028e-06, Final residual = 3.9361034e-08, No Iterations 1
DILUPBiCG:  Solving for Uz, Initial residual = 0.0041593875, Final residual = 4.1399014e-05, No Iterations 1
DILUPBiCG:  Solving for h, Initial residual = 0.0067673384, Final residual = 3.2923728e-05, No Iterations 3
MACARENA
GAMG:  Solving for p_rgh, Initial residual = 0.00020379532, Final residual = 3.1313264e-05, No Iterations 1
MACARENA
MACARENA
time step continuity errors : sum local = 1.7146851e-06, global = 5.3814395e-08, cumulative = -6.1316638e-06
ExecutionTime = 1.73 s  ClockTime = 2 s
Inflow      : -3.6984615e-09 [kg/s]
Outflow     : -3.6535803e-09 [kg/s]
EnergyInflow  : -0.0010927556 [W]
EnergyOutflow : -0.0010794949 [W]
rho max/avg/min : 1.2016452 1.2015412 1.2014376
T   max/avg/min : 293.70015 293.70006 293.7
P   max/avg/min : 101324.91 101316.16 101307.41
Prg max/avg/min : 101325 101325 101325
U   max/avg/min : 1.3122575e-05 -1.170247e-05 -4.065274e-05
Prg max-min : 0.0015205998
 
Iteration Number = 51

DILUPBiCG:  Solving for Ux, Initial residual = 0.022731516, Final residual = 5.6174776e-06, No Iterations 2
DILUPBiCG:  Solving for Uy, Initial residual = 5.1772722e-06, Final residual = 3.9968573e-08, No Iterations 1
DILUPBiCG:  Solving for Uz, Initial residual = 0.004129538, Final residual = 4.1029873e-05, No Iterations 1
DILUPBiCG:  Solving for h, Initial residual = 0.0067941646, Final residual = 4.1027047e-05, No Iterations 3
MACARENA
GAMG:  Solving for p_rgh, Initial residual = 0.00034743472, Final residual = 3.3258837e-05, No Iterations 1
MACARENA
MACARENA
time step continuity errors : sum local = 1.8202487e-06, global = 2.0848158e-08, cumulative = -6.1108156e-06
ExecutionTime = 1.77 s  ClockTime = 2 s
Inflow      : -3.5657668e-09 [kg/s]
Outflow     : -3.5483794e-09 [kg/s]
EnergyInflow  : -0.0010535493 [W]
EnergyOutflow : -0.001048412 [W]
rho max/avg/min : 1.2016452 1.2015412 1.2014376
T   max/avg/min : 293.70015 293.70006 293.7
P   max/avg/min : 101324.91 101316.16 101307.41
Prg max/avg/min : 101325 101325 101325
U   max/avg/min : 1.3170869e-05 -1.1652303e-05 -4.036875e-05
Prg max-min : 0.0015208485
 
Iteration Number = 52

DILUPBiCG:  Solving for Ux, Initial residual = 0.033569803, Final residual = 9.5882839e-06, No Iterations 2
DILUPBiCG:  Solving for Uy, Initial residual = 5.2236582e-06, Final residual = 4.0714682e-08, No Iterations 1
DILUPBiCG:  Solving for Uz, Initial residual = 0.00421745, Final residual = 4.0770228e-05, No Iterations 1
DILUPBiCG:  Solving for h, Initial residual = 0.0067336392, Final residual = 6.2953311e-05, No Iterations 3
MACARENA
GAMG:  Solving for p_rgh, Initial residual = 0.00027937455, Final residual = 2.4102224e-05, No Iterations 1
MACARENA
MACARENA
time step continuity errors : sum local = 1.3204909e-06, global = -3.3678644e-07, cumulative = -6.447602e-06
ExecutionTime = 1.79 s  ClockTime = 2 s
Inflow      : -3.5449468e-09 [kg/s]
Outflow     : -3.8258265e-09 [kg/s]
EnergyInflow  : -0.0010473978 [W]
EnergyOutflow : -0.0011303871 [W]
rho max/avg/min : 1.2016452 1.2015412 1.2014376
T   max/avg/min : 293.70014 293.70006 293.7
P   max/avg/min : 101324.91 101316.16 101307.41
Prg max/avg/min : 101325 101325 101325
U   max/avg/min : 1.3070669e-05 -1.1634794e-05 -4.0105537e-05
Prg max-min : 0.0015207068
 
Iteration Number = 53

DILUPBiCG:  Solving for Ux, Initial residual = 0.038222183, Final residual = 1.0282132e-05, No Iterations 2
DILUPBiCG:  Solving for Uy, Initial residual = 5.1037248e-06, Final residual = 4.0014156e-08, No Iterations 1
DILUPBiCG:  Solving for Uz, Initial residual = 0.0040722062, Final residual = 5.0778454e-07, No Iterations 2
DILUPBiCG:  Solving for h, Initial residual = 0.0067098423, Final residual = 2.044263e-05, No Iterations 3
MACARENA
GAMG:  Solving for p_rgh, Initial residual = 0.00031055884, Final residual = 2.460322e-05, No Iterations 1
MACARENA
MACARENA
time step continuity errors : sum local = 1.3555972e-06, global = -2.4622473e-07, cumulative = -6.6938268e-06
ExecutionTime = 1.83 s  ClockTime = 2 s
Inflow      : -3.5464768e-09 [kg/s]
Outflow     : -3.7518281e-09 [kg/s]
EnergyInflow  : -0.0010478498 [W]
EnergyOutflow : -0.0011085234 [W]
rho max/avg/min : 1.2016452 1.2015412 1.2014376
T   max/avg/min : 293.70014 293.70006 293.7
P   max/avg/min : 101324.91 101316.16 101307.41
Prg max/avg/min : 101325 101325 101325
U   max/avg/min : 1.2842523e-05 -1.1646867e-05 -3.9871821e-05
Prg max-min : 0.0015205338
 
Iteration Number = 54

DILUPBiCG:  Solving for Ux, Initial residual = 0.047389585, Final residual = 1.3345798e-05, No Iterations 2
DILUPBiCG:  Solving for Uy, Initial residual = 5.0902894e-06, Final residual = 3.8954953e-08, No Iterations 1
DILUPBiCG:  Solving for Uz, Initial residual = 0.0041997189, Final residual = 4.94041e-07, No Iterations 2
DILUPBiCG:  Solving for h, Initial residual = 0.0065848258, Final residual = 2.4380828e-05, No Iterations 3
MACARENA
GAMG:  Solving for p_rgh, Initial residual = 0.00027452014, Final residual = 1.6488217e-05, No Iterations 1
MACARENA
MACARENA
time step continuity errors : sum local = 9.2118484e-07, global = 2.5204644e-07, cumulative = -6.4417803e-06
ExecutionTime = 1.87 s  ClockTime = 2 s
Inflow      : -3.5384951e-09 [kg/s]
Outflow     : -3.3282885e-09 [kg/s]
EnergyInflow  : -0.0010454915 [W]
EnergyOutflow : -0.00098338344 [W]
rho max/avg/min : 1.2016452 1.2015412 1.2014376
T   max/avg/min : 293.70014 293.70006 293.7
P   max/avg/min : 101324.91 101316.16 101307.41
Prg max/avg/min : 101325 101325 101325
U   max/avg/min : 1.2652328e-05 -1.1623861e-05 -3.9630414e-05
Prg max-min : 0.0015208714
 
Iteration Number = 55

DILUPBiCG:  Solving for Ux, Initial residual = 0.033225907, Final residual = 9.3460984e-06, No Iterations 2
DILUPBiCG:  Solving for Uy, Initial residual = 5.0722881e-06, Final residual = 3.9423278e-08, No Iterations 1
DILUPBiCG:  Solving for Uz, Initial residual = 0.0047374142, Final residual = 6.3118254e-07, No Iterations 2
DILUPBiCG:  Solving for h, Initial residual = 0.0066341986, Final residual = 2.8321257e-05, No Iterations 3
MACARENA
GAMG:  Solving for p_rgh, Initial residual = 0.00028985939, Final residual = 1.2283122e-05, No Iterations 1
MACARENA
MACARENA
time step continuity errors : sum local = 7.0130226e-07, global = 2.1826176e-07, cumulative = -6.2235186e-06
ExecutionTime = 1.9 s  ClockTime = 2 s
Inflow      : -3.2302051e-09 [kg/s]
Outflow     : -3.0481749e-09 [kg/s]
EnergyInflow  : -0.0009544035 [W]
EnergyOutflow : -0.00090062047 [W]
rho max/avg/min : 1.2016452 1.2015412 1.2014376
T   max/avg/min : 293.70014 293.70006 293.7
P   max/avg/min : 101324.91 101316.16 101307.41
Prg max/avg/min : 101325 101325 101325
U   max/avg/min : 1.312481e-05 -1.1492679e-05 -3.9279458e-05
Prg max-min : 0.0015220041
 
Iteration Number = 56

DILUPBiCG:  Solving for Ux, Initial residual = 0.043821173, Final residual = 1.1855684e-05, No Iterations 2
DILUPBiCG:  Solving for Uy, Initial residual = 5.0787412e-06, Final residual = 3.8709548e-08, No Iterations 1
DILUPBiCG:  Solving for Uz, Initial residual = 0.0089090849, Final residual = 1.0205046e-06, No Iterations 2
DILUPBiCG:  Solving for h, Initial residual = 0.0067991649, Final residual = 9.2324685e-06, No Iterations 4
MACARENA
GAMG:  Solving for p_rgh, Initial residual = 0.00048370358, Final residual = 2.904697e-05, No Iterations 1
MACARENA
MACARENA
time step continuity errors : sum local = 1.6062673e-06, global = -4.2021683e-07, cumulative = -6.6437354e-06
ExecutionTime = 1.93 s  ClockTime = 2 s
Inflow      : -2.9887091e-09 [kg/s]
Outflow     : -3.3391697e-09 [kg/s]
EnergyInflow  : -0.00088305058 [W]
EnergyOutflow : -0.00098659844 [W]
rho max/avg/min : 1.2016452 1.2015412 1.2014376
T   max/avg/min : 293.70014 293.70006 293.7
P   max/avg/min : 101324.91 101316.16 101307.41
Prg max/avg/min : 101325 101325 101325
U   max/avg/min : 1.3587127e-05 -1.1348515e-05 -3.886664e-05
Prg max-min : 0.0015217411
 
Iteration Number = 57

DILUPBiCG:  Solving for Ux, Initial residual = 0.051862894, Final residual = 1.3524782e-05, No Iterations 2
DILUPBiCG:  Solving for Uy, Initial residual = 4.8080191e-06, Final residual = 3.5852751e-08, No Iterations 1
DILUPBiCG:  Solving for Uz, Initial residual = 0.0063949217, Final residual = 8.315205e-07, No Iterations 2
DILUPBiCG:  Solving for h, Initial residual = 0.0069028808, Final residual = 3.2506227e-05, No Iterations 3
MACARENA
GAMG:  Solving for p_rgh, Initial residual = 0.00040105916, Final residual = 2.1515052e-05, No Iterations 1
MACARENA
MACARENA
time step continuity errors : sum local = 1.1900186e-06, global = -4.7190148e-07, cumulative = -7.1156369e-06
ExecutionTime = 1.97 s  ClockTime = 2 s
Inflow      : -3.3651096e-09 [kg/s]
Outflow     : -3.7586752e-09 [kg/s]
EnergyInflow  : -0.0009942627 [W]
EnergyOutflow : -0.0011105464 [W]
rho max/avg/min : 1.2016452 1.2015412 1.2014376
T   max/avg/min : 293.70014 293.70006 293.7
P   max/avg/min : 101324.91 101316.16 101307.41
Prg max/avg/min : 101325 101325 101325
U   max/avg/min : 1.2777921e-05 -1.1457538e-05 -3.87001e-05
Prg max-min : 0.0015190893
 
Iteration Number = 58

DILUPBiCG:  Solving for Ux, Initial residual = 0.064658155, Final residual = 1.7369089e-05, No Iterations 2
DILUPBiCG:  Solving for Uy, Initial residual = 4.5100581e-06, Final residual = 3.4653095e-08, No Iterations 1
DILUPBiCG:  Solving for Uz, Initial residual = 0.011827887, Final residual = 9.9449291e-07, No Iterations 2
DILUPBiCG:  Solving for h, Initial residual = 0.0063182926, Final residual = 2.0309915e-05, No Iterations 3
MACARENA
GAMG:  Solving for p_rgh, Initial residual = 0.00034725561, Final residual = 2.5075524e-05, No Iterations 1
MACARENA
MACARENA
time step continuity errors : sum local = 1.3791117e-06, global = 6.1960519e-07, cumulative = -6.4960317e-06
ExecutionTime = 2 s  ClockTime = 2 s
Inflow      : -3.5841355e-09 [kg/s]
Outflow     : -3.0673852e-09 [kg/s]
EnergyInflow  : -0.0010589766 [W]
EnergyOutflow : -0.00090629637 [W]
rho max/avg/min : 1.2016452 1.2015412 1.2014376
T   max/avg/min : 293.70014 293.70006 293.7
P   max/avg/min : 101324.91 101316.16 101307.41
Prg max/avg/min : 101325 101325 101325
U   max/avg/min : 1.182517e-05 -1.1591579e-05 -3.8654699e-05
Prg max-min : 0.0015208972
 
Iteration Number = 59

DILUPBiCG:  Solving for Ux, Initial residual = 0.061868628, Final residual = 1.3872843e-05, No Iterations 2
DILUPBiCG:  Solving for Uy, Initial residual = 4.3725735e-06, Final residual = 3.2300165e-08, No Iterations 1
DILUPBiCG:  Solving for Uz, Initial residual = 0.0080437884, Final residual = 9.5780337e-07, No Iterations 2
DILUPBiCG:  Solving for h, Initial residual = 0.0064310408, Final residual = 2.1307285e-05, No Iterations 3
MACARENA
GAMG:  Solving for p_rgh, Initial residual = 0.00032845056, Final residual = 2.2118359e-05, No Iterations 1
MACARENA
MACARENA
time step continuity errors : sum local = 1.221188e-06, global = 2.4164499e-07, cumulative = -6.2543867e-06
ExecutionTime = 2.03 s  ClockTime = 2 s
Inflow      : -2.8414262e-09 [kg/s]
Outflow     : -2.6398944e-09 [kg/s]
EnergyInflow  : -0.00083953403 [W]
EnergyOutflow : -0.00077998901 [W]
rho max/avg/min : 1.2016452 1.2015412 1.2014376
T   max/avg/min : 293.70014 293.70006 293.7
P   max/avg/min : 101324.91 101316.16 101307.41
Prg max/avg/min : 101325 101325 101325
U   max/avg/min : 1.3051628e-05 -1.1352646e-05 -3.8183707e-05
Prg max-min : 0.0015237527
 
Iteration Number = 60

DILUPBiCG:  Solving for Ux, Initial residual = 0.05409265, Final residual = 1.5387918e-05, No Iterations 2
DILUPBiCG:  Solving for Uy, Initial residual = 4.3912991e-06, Final residual = 3.3384118e-08, No Iterations 1
DILUPBiCG:  Solving for Uz, Initial residual = 0.017240231, Final residual = 1.7009228e-06, No Iterations 2
DILUPBiCG:  Solving for h, Initial residual = 0.0069200242, Final residual = 3.0919022e-05, No Iterations 3
MACARENA
GAMG:  Solving for p_rgh, Initial residual = 0.00042311937, Final residual = 2.1626297e-05, No Iterations 1
MACARENA
MACARENA
time step continuity errors : sum local = 1.1931546e-06, global = -6.6740039e-07, cumulative = -6.9217871e-06
ExecutionTime = 2.06 s  ClockTime = 2 s
Inflow      : -2.3875333e-09 [kg/s]
Outflow     : -2.9441448e-09 [kg/s]
EnergyInflow  : -0.00070542584 [W]
EnergyOutflow : -0.00086988351 [W]
rho max/avg/min : 1.2016452 1.2015412 1.2014376
T   max/avg/min : 293.70013 293.70006 293.7
P   max/avg/min : 101324.91 101316.16 101307.41
Prg max/avg/min : 101325 101325 101325
U   max/avg/min : 1.3866859e-05 -1.1086102e-05 -3.7599715e-05
Prg max-min : 0.0015219919
 
Iteration Number = 61

DILUPBiCG:  Solving for Ux, Initial residual = 0.071949844, Final residual = 1.7747545e-05, No Iterations 2
DILUPBiCG:  Solving for Uy, Initial residual = 4.332163e-06, Final residual = 3.3485778e-08, No Iterations 1
DILUPBiCG:  Solving for Uz, Initial residual = 0.0078510974, Final residual = 1.0310002e-06, No Iterations 2
DILUPBiCG:  Solving for h, Initial residual = 0.0069367458, Final residual = 3.4016005e-05, No Iterations 3
MACARENA
GAMG:  Solving for p_rgh, Initial residual = 0.00040380551, Final residual = 1.3956538e-05, No Iterations 1
MACARENA
MACARENA
time step continuity errors : sum local = 7.8202494e-07, global = -2.5587299e-07, cumulative = -7.1776601e-06
ExecutionTime = 2.09 s  ClockTime = 2 s
Inflow      : -3.2007552e-09 [kg/s]
Outflow     : -3.4141531e-09 [kg/s]
EnergyInflow  : -0.00094570217 [W]
EnergyOutflow : -0.0010087532 [W]
rho max/avg/min : 1.2016452 1.2015412 1.2014376
T   max/avg/min : 293.70013 293.70006 293.7
P   max/avg/min : 101324.91 101316.16 101307.41
Prg max/avg/min : 101325 101325 101325
U   max/avg/min : 1.2629388e-05 -1.1254959e-05 -3.7520848e-05
Prg max-min : 0.0015185175
 
Iteration Number = 62

DILUPBiCG:  Solving for Ux, Initial residual = 0.063119643, Final residual = 1.7176965e-05, No Iterations 2
DILUPBiCG:  Solving for Uy, Initial residual = 4.1628708e-06, Final residual = 3.2334769e-08, No Iterations 1
DILUPBiCG:  Solving for Uz, Initial residual = 0.016572157, Final residual = 1.5014198e-06, No Iterations 2
DILUPBiCG:  Solving for h, Initial residual = 0.0061827389, Final residual = 3.5542345e-05, No Iterations 3
MACARENA
GAMG:  Solving for p_rgh, Initial residual = 0.00032214318, Final residual = 2.9626354e-05, No Iterations 1
MACARENA
MACARENA
time step continuity errors : sum local = 1.6149787e-06, global = 6.255371e-07, cumulative = -6.552123e-06
ExecutionTime = 2.13 s  ClockTime = 2 s
Inflow      : -3.3025171e-09 [kg/s]
Outflow     : -2.7808195e-09 [kg/s]
EnergyInflow  : -0.00097576897 [W]
EnergyOutflow : -0.00082162705 [W]
rho max/avg/min : 1.2016452 1.2015412 1.2014376
T   max/avg/min : 293.70013 293.70006 293.7
P   max/avg/min : 101324.91 101316.16 101307.41
Prg max/avg/min : 101325 101325 101325
U   max/avg/min : 1.2004932e-05 -1.1396394e-05 -3.7482605e-05
Prg max-min : 0.001521739
 
Iteration Number = 63

DILUPBiCG:  Solving for Ux, Initial residual = 0.059333007, Final residual = 1.3242239e-05, No Iterations 2
DILUPBiCG:  Solving for Uy, Initial residual = 3.9770994e-06, Final residual = 2.9454789e-08, No Iterations 1
DILUPBiCG:  Solving for Uz, Initial residual = 0.0086523439, Final residual = 1.0670923e-06, No Iterations 2
DILUPBiCG:  Solving for h, Initial residual = 0.0064830624, Final residual = 1.5542134e-05, No Iterations 3
MACARENA
GAMG:  Solving for p_rgh, Initial residual = 0.00031850132, Final residual = 2.2708511e-05, No Iterations 1
MACARENA
MACARENA
time step continuity errors : sum local = 1.2733992e-06, global = 2.4375731e-07, cumulative = -6.3083657e-06
ExecutionTime = 2.16 s  ClockTime = 2 s
Inflow      : -2.5715141e-09 [kg/s]
Outflow     : -2.3682206e-09 [kg/s]
EnergyInflow  : -0.00075978521 [W]
EnergyOutflow : -0.00069971967 [W]
rho max/avg/min : 1.2016452 1.2015412 1.2014376
T   max/avg/min : 293.70013 293.70006 293.7
P   max/avg/min : 101324.91 101316.16 101307.41
Prg max/avg/min : 101325 101325 101325
U   max/avg/min : 1.272595e-05 -1.1173065e-05 -3.7088886e-05
Prg max-min : 0.0015231852
 
Iteration Number = 64

DILUPBiCG:  Solving for Ux, Initial residual = 0.063058843, Final residual = 1.8569816e-05, No Iterations 2
DILUPBiCG:  Solving for Uy, Initial residual = 3.9148939e-06, Final residual = 2.9411138e-08, No Iterations 1
DILUPBiCG:  Solving for Uz, Initial residual = 0.014123463, Final residual = 1.4032563e-06, No Iterations 2
DILUPBiCG:  Solving for h, Initial residual = 0.0068040383, Final residual = 3.1586496e-05, No Iterations 3
MACARENA
GAMG:  Solving for p_rgh, Initial residual = 0.00045967252, Final residual = 1.9715553e-05, No Iterations 1
MACARENA
MACARENA
time step continuity errors : sum local = 1.0956435e-06, global = -5.5106874e-07, cumulative = -6.8594344e-06
ExecutionTime = 2.19 s  ClockTime = 2 s
Inflow      : -2.3108646e-09 [kg/s]
Outflow     : -2.7704556e-09 [kg/s]
EnergyInflow  : -0.00068277313 [W]
EnergyOutflow : -0.0008185649 [W]
rho max/avg/min : 1.2016452 1.2015412 1.2014376
T   max/avg/min : 293.70013 293.70006 293.7
P   max/avg/min : 101324.91 101316.16 101307.41
Prg max/avg/min : 101325 101325 101325
U   max/avg/min : 1.3277005e-05 -1.0982378e-05 -3.6685381e-05
Prg max-min : 0.0015219756
 
Iteration Number = 65

DILUPBiCG:  Solving for Ux, Initial residual = 0.062152143, Final residual = 1.5630747e-05, No Iterations 2
DILUPBiCG:  Solving for Uy, Initial residual = 3.7080165e-06, Final residual = 2.9410974e-08, No Iterations 1
DILUPBiCG:  Solving for Uz, Initial residual = 0.0063241607, Final residual = 8.3878258e-07, No Iterations 2
DILUPBiCG:  Solving for h, Initial residual = 0.0068313685, Final residual = 3.2752595e-05, No Iterations 3
MACARENA
GAMG:  Solving for p_rgh, Initial residual = 0.00035904521, Final residual = 1.3123322e-05, No Iterations 1
MACARENA
MACARENA
time step continuity errors : sum local = 7.4118542e-07, global = -2.3692703e-07, cumulative = -7.0963614e-06
ExecutionTime = 2.22 s  ClockTime = 2 s
Inflow      : -3.0603374e-09 [kg/s]
Outflow     : -3.2579344e-09 [kg/s]
EnergyInflow  : -0.00090421403 [W]
EnergyOutflow : -0.00096259647 [W]
rho max/avg/min : 1.2016452 1.2015412 1.2014376
T   max/avg/min : 293.70013 293.70006 293.7
P   max/avg/min : 101324.91 101316.16 101307.41
Prg max/avg/min : 101325 101325 101325
U   max/avg/min : 1.2095906e-05 -1.114149e-05 -3.6612954e-05
Prg max-min : 0.0015190135
 
Iteration Number = 66

DILUPBiCG:  Solving for Ux, Initial residual = 0.064280883, Final residual = 1.658323e-05, No Iterations 2
DILUPBiCG:  Solving for Uy, Initial residual = 3.4004865e-06, Final residual = 2.8168634e-08, No Iterations 1
DILUPBiCG:  Solving for Uz, Initial residual = 0.015157956, Final residual = 1.4120248e-06, No Iterations 2
DILUPBiCG:  Solving for h, Initial residual = 0.0061252144, Final residual = 4.3390163e-05, No Iterations 3
MACARENA
GAMG:  Solving for p_rgh, Initial residual = 0.00030955527, Final residual = 2.6913782e-05, No Iterations 1
MACARENA
MACARENA
time step continuity errors : sum local = 1.5018399e-06, global = 5.5194044e-07, cumulative = -6.544421e-06
ExecutionTime = 2.25 s  ClockTime = 2 s
Inflow      : -3.1155611e-09 [kg/s]
Outflow     : -2.6552431e-09 [kg/s]
EnergyInflow  : -0.00092053054 [W]
EnergyOutflow : -0.00078452397 [W]
rho max/avg/min : 1.2016452 1.2015412 1.2014376
T   max/avg/min : 293.70013 293.70006 293.7
P   max/avg/min : 101324.91 101316.16 101307.41
Prg max/avg/min : 101325 101325 101325
U   max/avg/min : 1.1545217e-05 -1.1252738e-05 -3.6550834e-05
Prg max-min : 0.0015220202
 
Iteration Number = 67

DILUPBiCG:  Solving for Ux, Initial residual = 0.056023219, Final residual = 1.3081406e-05, No Iterations 2
DILUPBiCG:  Solving for Uy, Initial residual = 3.3647888e-06, Final residual = 2.6846491e-08, No Iterations 1
DILUPBiCG:  Solving for Uz, Initial residual = 0.0080466526, Final residual = 1.0183745e-06, No Iterations 2
DILUPBiCG:  Solving for h, Initial residual = 0.0064376455, Final residual = 3.5187319e-05, No Iterations 3
MACARENA
GAMG:  Solving for p_rgh, Initial residual = 0.00030398645, Final residual = 1.9790158e-05, No Iterations 1
MACARENA
MACARENA
time step continuity errors : sum local = 1.1167889e-06, global = 2.7127111e-07, cumulative = -6.2731499e-06
ExecutionTime = 2.29 s  ClockTime = 2 s
Inflow      : -2.4830331e-09 [kg/s]
Outflow     : -2.2567932e-09 [kg/s]
EnergyInflow  : -0.00073364243 [W]
EnergyOutflow : -0.00066679708 [W]
rho max/avg/min : 1.2016452 1.2015412 1.2014376
T   max/avg/min : 293.70013 293.70006 293.7
P   max/avg/min : 101324.91 101316.16 101307.41
Prg max/avg/min : 101325 101325 101325
U   max/avg/min : 1.2238079e-05 -1.103781e-05 -3.6172339e-05
Prg max-min : 0.0015232012
 
Iteration Number = 68

DILUPBiCG:  Solving for Ux, Initial residual = 0.061249251, Final residual = 1.7388657e-05, No Iterations 2
DILUPBiCG:  Solving for Uy, Initial residual = 3.2579627e-06, Final residual = 2.6829158e-08, No Iterations 1
DILUPBiCG:  Solving for Uz, Initial residual = 0.013087634, Final residual = 1.3070031e-06, No Iterations 2
DILUPBiCG:  Solving for h, Initial residual = 0.0067334124, Final residual = 2.9604032e-05, No Iterations 3
MACARENA
GAMG:  Solving for p_rgh, Initial residual = 0.00036103342, Final residual = 1.7327525e-05, No Iterations 1
MACARENA
MACARENA
time step continuity errors : sum local = 9.7384318e-07, global = -4.7980605e-07, cumulative = -6.7529559e-06
ExecutionTime = 2.32 s  ClockTime = 2 s
Inflow      : -2.1546164e-09 [kg/s]
Outflow     : -2.5547744e-09 [kg/s]
EnergyInflow  : -0.00063660772 [W]
EnergyOutflow : -0.00075483927 [W]
rho max/avg/min : 1.2016452 1.2015412 1.2014376
T   max/avg/min : 293.70013 293.70006 293.7
P   max/avg/min : 101324.91 101316.16 101307.41
Prg max/avg/min : 101325 101325 101325
U   max/avg/min : 1.2766425e-05 -1.0847832e-05 -3.5771257e-05
Prg max-min : 0.0015222991
 
Iteration Number = 69

DILUPBiCG:  Solving for Ux, Initial residual = 0.059896817, Final residual = 1.4528221e-05, No Iterations 2
DILUPBiCG:  Solving for Uy, Initial residual = 3.2403636e-06, Final residual = 2.6086285e-08, No Iterations 1
[...]
DILUPBiCG:  Solving for Uy, Initial residual = 2.3345864e-07, Final residual = 1.7176726e-09, No Iterations 1
DILUPBiCG:  Solving for Uz, Initial residual = 0.0309375, Final residual = 3.9326921e-06, No Iterations 2
DILUPBiCG:  Solving for h, Initial residual = 0.00038405938, Final residual = 2.2621583e-06, No Iterations 4
MACARENA
GAMG:  Solving for p_rgh, Initial residual = 0.00013241304, Final residual = 1.1923466e-05, No Iterations 1
MACARENA
MACARENA
time step continuity errors : sum local = 6.7322219e-07, global = -2.2773995e-08, cumulative = 1.2568872e-05
ExecutionTime = 26.24 s  ClockTime = 26 s
Inflow      : -5.2957039e-11 [kg/s]
Outflow     : -7.1950538e-11 [kg/s]
EnergyInflow  : -1.5646803e-05 [W]
EnergyOutflow : -2.1258664e-05 [W]
rho max/avg/min : 1.2016452 1.2015412 1.2014376
T   max/avg/min : 293.70007 293.70005 293.7
P   max/avg/min : 101324.91 101316.16 101307.41
Prg max/avg/min : 101325 101325 101325
U   max/avg/min : 6.1370205e-07 -6.1894341e-07 -2.1476565e-06
Prg max-min : 0.001524575
 
Iteration Number = 776

DILUPBiCG:  Solving for Ux, Initial residual = 0.3163994, Final residual = 4.040965e-05, No Iterations 2
DILUPBiCG:  Solving for Uy, Initial residual = 2.0680911e-07, Final residual = 1.401583e-09, No Iterations 1
DILUPBiCG:  Solving for Uz, Initial residual = 0.041717931, Final residual = 4.5247294e-06, No Iterations 2
DILUPBiCG:  Solving for h, Initial residual = 0.00040468439, Final residual = 3.8710148e-06, No Iterations 3
MACARENA
GAMG:  Solving for p_rgh, Initial residual = 7.2156861e-05, Final residual = 7.2156861e-05, No Iterations 0
MACARENA
MACARENA
time step continuity errors : sum local = 3.9577267e-06, global = -2.226881e-07, cumulative = 1.2346184e-05
ExecutionTime = 26.27 s  ClockTime = 26 s
Inflow      : 1.1490978e-10 [kg/s]
Outflow     : -7.0811965e-11 [kg/s]
EnergyInflow  : 3.3951496e-05 [W]
EnergyOutflow : -2.0922259e-05 [W]
rho max/avg/min : 1.2016452 1.2015412 1.2014376
T   max/avg/min : 293.70007 293.70005 293.7
P   max/avg/min : 101324.91 101316.16 101307.41
Prg max/avg/min : 101325 101325 101325
U   max/avg/min : 1.0739844e-06 -5.9036477e-07 -2.1379252e-06
Prg max-min : 0.001524575
 
Iteration Number = 777

DILUPBiCG:  Solving for Ux, Initial residual = 0.27043406, Final residual = 3.0687386e-05, No Iterations 2
DILUPBiCG:  Solving for Uy, Initial residual = 2.4374839e-07, Final residual = 1.9339231e-09, No Iterations 1
DILUPBiCG:  Solving for Uz, Initial residual = 0.040653718, Final residual = 4.8069515e-06, No Iterations 2
DILUPBiCG:  Solving for h, Initial residual = 0.00046252915, Final residual = 6.0590936e-07, No Iterations 4
MACARENA
GAMG:  Solving for p_rgh, Initial residual = 0.00017034908, Final residual = 1.5585925e-05, No Iterations 1
MACARENA
MACARENA
time step continuity errors : sum local = 8.8538234e-07, global = -3.7098472e-07, cumulative = 1.1975199e-05
ExecutionTime = 26.3 s  ClockTime = 26 s
Inflow      : 2.3644023e-10 [kg/s]
Outflow     : -7.2960811e-11 [kg/s]
EnergyInflow  : 6.9859149e-05 [W]
EnergyOutflow : -2.1557162e-05 [W]
rho max/avg/min : 1.2016452 1.2015412 1.2014376
T   max/avg/min : 293.70007 293.70005 293.7
P   max/avg/min : 101324.91 101316.16 101307.41
Prg max/avg/min : 101325 101325 101325
U   max/avg/min : 9.661759e-07 -5.7511797e-07 -2.129502e-06
Prg max-min : 0.001524417
 
Iteration Number = 778

DILUPBiCG:  Solving for Ux, Initial residual = 0.34284581, Final residual = 4.2911503e-05, No Iterations 2
DILUPBiCG:  Solving for Uy, Initial residual = 2.1649438e-07, Final residual = 1.733576e-09, No Iterations 1
DILUPBiCG:  Solving for Uz, Initial residual = 0.038589686, Final residual = 4.0591987e-06, No Iterations 2
DILUPBiCG:  Solving for h, Initial residual = 0.00042300629, Final residual = 3.1012992e-07, No Iterations 4
MACARENA
GAMG:  Solving for p_rgh, Initial residual = 8.438923e-05, Final residual = 8.438923e-05, No Iterations 0
MACARENA
MACARENA
time step continuity errors : sum local = 4.6186773e-06, global = -4.6953373e-07, cumulative = 1.1505666e-05
ExecutionTime = 26.34 s  ClockTime = 26 s
Inflow      : 3.2783553e-10 [kg/s]
Outflow     : -6.3755324e-11 [kg/s]
EnergyInflow  : 9.6863006e-05 [W]
EnergyOutflow : -1.8837288e-05 [W]
rho max/avg/min : 1.2016452 1.2015412 1.2014376
T   max/avg/min : 293.70007 293.70005 293.7
P   max/avg/min : 101324.91 101316.16 101307.41
Prg max/avg/min : 101325 101325 101325
U   max/avg/min : 9.6746479e-07 -5.7204832e-07 -2.1223569e-06
Prg max-min : 0.001524417
 
Iteration Number = 779

DILUPBiCG:  Solving for Ux, Initial residual = 0.28814181, Final residual = 3.4272995e-05, No Iterations 2
DILUPBiCG:  Solving for Uy, Initial residual = 2.5249365e-07, Final residual = 1.8136725e-09, No Iterations 1
DILUPBiCG:  Solving for Uz, Initial residual = 0.038039639, Final residual = 4.4775674e-06, No Iterations 2
DILUPBiCG:  Solving for h, Initial residual = 0.00045640213, Final residual = 2.881563e-06, No Iterations 3
MACARENA
GAMG:  Solving for p_rgh, Initial residual = 0.00019152672, Final residual = 1.484549e-05, No Iterations 1
MACARENA
MACARENA
time step continuity errors : sum local = 8.3638468e-07, global = -1.9474489e-07, cumulative = 1.1310921e-05
ExecutionTime = 26.37 s  ClockTime = 26 s
Inflow      : 9.8963196e-11 [kg/s]
Outflow     : -6.3453926e-11 [kg/s]
EnergyInflow  : 2.9239884e-05 [W]
EnergyOutflow : -1.8748237e-05 [W]
rho max/avg/min : 1.2016452 1.2015412 1.2014376
T   max/avg/min : 293.70007 293.70005 293.7
P   max/avg/min : 101324.91 101316.16 101307.41
Prg max/avg/min : 101325 101325 101325
U   max/avg/min : 8.5158961e-07 -5.7174726e-07 -2.1158491e-06
Prg max-min : 0.0015243917
 
Iteration Number = 780

DILUPBiCG:  Solving for Ux, Initial residual = 0.37590475, Final residual = 4.6712309e-05, No Iterations 2
DILUPBiCG:  Solving for Uy, Initial residual = 2.1607058e-07, Final residual = 1.5456948e-09, No Iterations 1
DILUPBiCG:  Solving for Uz, Initial residual = 0.036642889, Final residual = 4.0739174e-06, No Iterations 2
DILUPBiCG:  Solving for h, Initial residual = 0.00041360003, Final residual = 2.8715449e-06, No Iterations 3
MACARENA
GAMG:  Solving for p_rgh, Initial residual = 9.1703807e-05, Final residual = 9.1703807e-05, No Iterations 0
MACARENA
MACARENA
time step continuity errors : sum local = 5.0130976e-06, global = 3.6272643e-08, cumulative = 1.1347193e-05
ExecutionTime = 26.4 s  ClockTime = 26 s
Inflow      : -9.258634e-11 [kg/s]
Outflow     : -6.2334977e-11 [kg/s]
EnergyInflow  : -2.7355764e-05 [W]
EnergyOutflow : -1.8417629e-05 [W]
rho max/avg/min : 1.2016452 1.2015412 1.2014376
T   max/avg/min : 293.70007 293.70005 293.7
P   max/avg/min : 101324.91 101316.16 101307.41
Prg max/avg/min : 101325 101325 101325
U   max/avg/min : 8.0660476e-07 -5.7392576e-07 -2.1101001e-06
Prg max-min : 0.0015243917
 
Iteration Number = 781

DILUPBiCG:  Solving for Ux, Initial residual = 0.3195495, Final residual = 3.7228753e-05, No Iterations 2
DILUPBiCG:  Solving for Uy, Initial residual = 2.5165042e-07, Final residual = 1.7989846e-09, No Iterations 1
DILUPBiCG:  Solving for Uz, Initial residual = 0.036412167, Final residual = 4.4659168e-06, No Iterations 2
DILUPBiCG:  Solving for h, Initial residual = 0.00043389037, Final residual = 3.1413021e-06, No Iterations 3
MACARENA
GAMG:  Solving for p_rgh, Initial residual = 0.00020753484, Final residual = 1.3662137e-05, No Iterations 1
MACARENA
MACARENA
time step continuity errors : sum local = 7.7348093e-07, global = -1.7582961e-07, cumulative = 1.1171364e-05
ExecutionTime = 26.44 s  ClockTime = 26 s
Inflow      : 8.0950195e-11 [kg/s]
Outflow     : -6.5691594e-11 [kg/s]
EnergyInflow  : 2.3917723e-05 [W]
EnergyOutflow : -1.9409383e-05 [W]
rho max/avg/min : 1.2016452 1.2015412 1.2014376
T   max/avg/min : 293.70007 293.70005 293.7
P   max/avg/min : 101324.91 101316.16 101307.41
Prg max/avg/min : 101325 101325 101325
U   max/avg/min : 7.6140925e-07 -5.784051e-07 -2.1033189e-06
Prg max-min : 0.0015243604
 
Iteration Number = 782

DILUPBiCG:  Solving for Ux, Initial residual = 0.41521294, Final residual = 5.2413023e-05, No Iterations 2
DILUPBiCG:  Solving for Uy, Initial residual = 2.0805246e-07, Final residual = 1.4133057e-09, No Iterations 1
DILUPBiCG:  Solving for Uz, Initial residual = 0.035193363, Final residual = 4.2041828e-06, No Iterations 2
DILUPBiCG:  Solving for h, Initial residual = 0.0003852953, Final residual = 1.3137522e-06, No Iterations 3
MACARENA
GAMG:  Solving for p_rgh, Initial residual = 0.00010146601, Final residual = 6.4163205e-06, No Iterations 1
MACARENA
MACARENA
time step continuity errors : sum local = 3.8504779e-07, global = -5.24704e-08, cumulative = 1.1118893e-05
ExecutionTime = 26.47 s  ClockTime = 27 s
Inflow      : -1.8161527e-11 [kg/s]
Outflow     : -6.1921809e-11 [kg/s]
EnergyInflow  : -5.3660446e-06 [W]
EnergyOutflow : -1.8295554e-05 [W]
rho max/avg/min : 1.2016452 1.2015412 1.2014376
T   max/avg/min : 293.70007 293.70005 293.7
P   max/avg/min : 101324.91 101316.16 101307.41
Prg max/avg/min : 101325 101325 101325
U   max/avg/min : 4.8720156e-07 -5.8731962e-07 -2.0956708e-06
Prg max-min : 0.0015243361
 
Iteration Number = 783

DILUPBiCG:  Solving for Ux, Initial residual = 0.22227122, Final residual = 3.1328256e-05, No Iterations 2
DILUPBiCG:  Solving for Uy, Initial residual = 2.0445586e-07, Final residual = 1.2252076e-09, No Iterations 1
DILUPBiCG:  Solving for Uz, Initial residual = 0.022351907, Final residual = 2.8065297e-06, No Iterations 2
DILUPBiCG:  Solving for h, Initial residual = 0.0003512396, Final residual = 2.3525064e-06, No Iterations 3
MACARENA
GAMG:  Solving for p_rgh, Initial residual = 7.9477848e-05, Final residual = 7.9477848e-05, No Iterations 0
MACARENA
MACARENA
time step continuity errors : sum local = 4.3558322e-06, global = -7.4664845e-08, cumulative = 1.1044228e-05
ExecutionTime = 26.5 s  ClockTime = 27 s
Inflow      : 7.4531992e-12 [kg/s]
Outflow     : -5.4817237e-11 [kg/s]
EnergyInflow  : 2.2021386e-06 [W]
EnergyOutflow : -1.6196421e-05 [W]
rho max/avg/min : 1.2016452 1.2015412 1.2014376
T   max/avg/min : 293.70007 293.70005 293.7
P   max/avg/min : 101324.91 101316.16 101307.41
Prg max/avg/min : 101325 101325 101325
U   max/avg/min : 4.8878037e-07 -5.9823366e-07 -2.0882445e-06
Prg max-min : 0.0015243361
 
Iteration Number = 784

DILUPBiCG:  Solving for Ux, Initial residual = 0.175788, Final residual = 2.2947129e-05, No Iterations 2
DILUPBiCG:  Solving for Uy, Initial residual = 2.3617017e-07, Final residual = 1.6301873e-09, No Iterations 1
DILUPBiCG:  Solving for Uz, Initial residual = 0.022216297, Final residual = 2.9122164e-06, No Iterations 2
DILUPBiCG:  Solving for h, Initial residual = 0.00035946468, Final residual = 4.9596479e-07, No Iterations 4
MACARENA
GAMG:  Solving for p_rgh, Initial residual = 0.00014132105, Final residual = 1.0540095e-05, No Iterations 1
MACARENA
MACARENA
time step continuity errors : sum local = 6.0480996e-07, global = 1.4151897e-07, cumulative = 1.1185747e-05
ExecutionTime = 26.54 s  ClockTime = 27 s
Inflow      : -1.7279828e-10 [kg/s]
Outflow     : -5.4771535e-11 [kg/s]
EnergyInflow  : -5.1055359e-05 [W]
EnergyOutflow : -1.6182918e-05 [W]
rho max/avg/min : 1.2016452 1.2015412 1.2014376
T   max/avg/min : 293.70007 293.70005 293.7
P   max/avg/min : 101324.91 101316.16 101307.41
Prg max/avg/min : 101325 101325 101325
U   max/avg/min : 4.5146173e-07 -6.0868786e-07 -2.0820209e-06
Prg max-min : 0.001524342
 
Iteration Number = 785

DILUPBiCG:  Solving for Ux, Initial residual = 0.37327669, Final residual = 4.7091299e-05, No Iterations 2
DILUPBiCG:  Solving for Uy, Initial residual = 1.9435254e-07, Final residual = 1.172043e-09, No Iterations 1
DILUPBiCG:  Solving for Uz, Initial residual = 0.030667148, Final residual = 3.7035325e-06, No Iterations 2
DILUPBiCG:  Solving for h, Initial residual = 0.00032258816, Final residual = 1.3561211e-06, No Iterations 3
MACARENA
GAMG:  Solving for p_rgh, Initial residual = 7.5118007e-05, Final residual = 7.5118007e-05, No Iterations 0
MACARENA
MACARENA
time step continuity errors : sum local = 4.103687e-06, global = 3.3502946e-07, cumulative = 1.1520777e-05
ExecutionTime = 26.57 s  ClockTime = 27 s
Inflow      : -3.2955276e-10 [kg/s]
Outflow     : -5.0138388e-11 [kg/s]
EnergyInflow  : -9.7370383e-05 [W]
EnergyOutflow : -1.4813998e-05 [W]
rho max/avg/min : 1.2016452 1.2015412 1.2014376
T   max/avg/min : 293.70007 293.70005 293.7
P   max/avg/min : 101324.91 101316.16 101307.41
Prg max/avg/min : 101325 101325 101325
U   max/avg/min : 4.5584286e-07 -6.186833e-07 -2.0770654e-06
Prg max-min : 0.001524342
 
Iteration Number = 786

DILUPBiCG:  Solving for Ux, Initial residual = 0.30395351, Final residual = 3.5872354e-05, No Iterations 2
DILUPBiCG:  Solving for Uy, Initial residual = 2.3075007e-07, Final residual = 1.4357162e-09, No Iterations 1
DILUPBiCG:  Solving for Uz, Initial residual = 0.03047844, Final residual = 3.8196044e-06, No Iterations 2
DILUPBiCG:  Solving for h, Initial residual = 0.00035014773, Final residual = 1.6969217e-06, No Iterations 4
MACARENA
GAMG:  Solving for p_rgh, Initial residual = 0.00016850287, Final residual = 1.0735408e-05, No Iterations 1
MACARENA
MACARENA
time step continuity errors : sum local = 6.0753602e-07, global = 1.561858e-07, cumulative = 1.1676963e-05
ExecutionTime = 26.61 s  ClockTime = 27 s
Inflow      : -1.8141359e-10 [kg/s]
Outflow     : -5.1154726e-11 [kg/s]
EnergyInflow  : -5.3600857e-05 [W]
EnergyOutflow : -1.5114288e-05 [W]
rho max/avg/min : 1.2016452 1.2015412 1.2014376
T   max/avg/min : 293.70007 293.70005 293.7
P   max/avg/min : 101324.91 101316.16 101307.41
Prg max/avg/min : 101325 101325 101325
U   max/avg/min : 4.418328e-07 -6.2455073e-07 -2.0719933e-06
Prg max-min : 0.0015243948
 
Iteration Number = 787

DILUPBiCG:  Solving for Ux, Initial residual = 0.41188952, Final residual = 5.1588103e-05, No Iterations 2
DILUPBiCG:  Solving for Uy, Initial residual = 1.9865091e-07, Final residual = 1.256401e-09, No Iterations 1
DILUPBiCG:  Solving for Uz, Initial residual = 0.025709784, Final residual = 3.2044764e-06, No Iterations 2
DILUPBiCG:  Solving for h, Initial residual = 0.00030150823, Final residual = 9.7259376e-07, No Iterations 3
MACARENA
GAMG:  Solving for p_rgh, Initial residual = 7.2039762e-05, Final residual = 7.2039762e-05, No Iterations 0
MACARENA
MACARENA
time step continuity errors : sum local = 3.9345005e-06, global = 6.4140222e-08, cumulative = 1.1741103e-05
ExecutionTime = 26.64 s  ClockTime = 27 s
Inflow      : -1.0410996e-10 [kg/s]
Outflow     : -5.0617054e-11 [kg/s]
EnergyInflow  : -3.0760558e-05 [W]
EnergyOutflow : -1.4955426e-05 [W]
rho max/avg/min : 1.2016452 1.2015412 1.2014376
T   max/avg/min : 293.70007 293.70005 293.7
P   max/avg/min : 101324.91 101316.16 101307.41
Prg max/avg/min : 101325 101325 101325
U   max/avg/min : 4.8883761e-07 -6.2674826e-07 -2.0667941e-06
Prg max-min : 0.0015243948
 
Iteration Number = 788

DILUPBiCG:  Solving for Ux, Initial residual = 0.30120329, Final residual = 3.5225302e-05, No Iterations 2
DILUPBiCG:  Solving for Uy, Initial residual = 2.3123367e-07, Final residual = 1.5178622e-09, No Iterations 1
DILUPBiCG:  Solving for Uz, Initial residual = 0.025151025, Final residual = 3.1729825e-06, No Iterations 2
DILUPBiCG:  Solving for h, Initial residual = 0.00032419241, Final residual = 9.5144187e-07, No Iterations 3
MACARENA
GAMG:  Solving for p_rgh, Initial residual = 0.000155734, Final residual = 8.8337072e-06, No Iterations 1
MACARENA
MACARENA
time step continuity errors : sum local = 5.1644473e-07, global = 2.0547564e-07, cumulative = 1.1946578e-05
ExecutionTime = 26.67 s  ClockTime = 27 s
Inflow      : -2.2407128e-10 [kg/s]
Outflow     : -5.2704723e-11 [kg/s]
EnergyInflow  : -6.6204594e-05 [W]
EnergyOutflow : -1.5572253e-05 [W]
rho max/avg/min : 1.2016452 1.2015412 1.2014376
T   max/avg/min : 293.70007 293.70005 293.7
P   max/avg/min : 101324.91 101316.16 101307.41
Prg max/avg/min : 101325 101325 101325
U   max/avg/min : 4.8608298e-07 -6.2465806e-07 -2.0598436e-06
Prg max-min : 0.0015244422
 
Iteration Number = 789

DILUPBiCG:  Solving for Ux, Initial residual = 0.35659008, Final residual = 4.6637162e-05, No Iterations 2
DILUPBiCG:  Solving for Uy, Initial residual = 1.9763304e-07, Final residual = 1.2868521e-09, No Iterations 1
DILUPBiCG:  Solving for Uz, Initial residual = 0.021950688, Final residual = 2.5395467e-06, No Iterations 2
DILUPBiCG:  Solving for h, Initial residual = 0.00028172203, Final residual = 1.2756894e-06, No Iterations 3
MACARENA
GAMG:  Solving for p_rgh, Initial residual = 6.2879928e-05, Final residual = 6.2879928e-05, No Iterations 0
MACARENA
MACARENA
time step continuity errors : sum local = 3.4284776e-06, global = 2.3385351e-07, cumulative = 1.2180432e-05
ExecutionTime = 26.7 s  ClockTime = 27 s
Inflow      : -2.4444303e-10 [kg/s]
Outflow     : -4.9409344e-11 [kg/s]
EnergyInflow  : -7.2223675e-05 [W]
EnergyOutflow : -1.4598594e-05 [W]
rho max/avg/min : 1.2016452 1.2015412 1.2014376
T   max/avg/min : 293.70007 293.70005 293.7
P   max/avg/min : 101324.91 101316.16 101307.41
Prg max/avg/min : 101325 101325 101325
U   max/avg/min : 4.6861704e-07 -6.1853456e-07 -2.0510176e-06
Prg max-min : 0.0015244422
 
Iteration Number = 790

DILUPBiCG:  Solving for Ux, Initial residual = 0.28616577, Final residual = 3.5388811e-05, No Iterations 2
DILUPBiCG:  Solving for Uy, Initial residual = 2.1544198e-07, Final residual = 1.3046074e-09, No Iterations 1
DILUPBiCG:  Solving for Uz, Initial residual = 0.021037881, Final residual = 2.4899529e-06, No Iterations 2
DILUPBiCG:  Solving for h, Initial residual = 0.00030260368, Final residual = 6.9946318e-08, No Iterations 5
MACARENA
GAMG:  Solving for p_rgh, Initial residual = 0.00013920604, Final residual = 7.752617e-06, No Iterations 1
MACARENA
MACARENA
time step continuity errors : sum local = 4.6073864e-07, global = 8.6018453e-08, cumulative = 1.226645e-05
ExecutionTime = 26.73 s  ClockTime = 27 s
Inflow      : -1.2230465e-10 [kg/s]
Outflow     : -5.0565315e-11 [kg/s]
EnergyInflow  : -3.6136402e-05 [W]
EnergyOutflow : -1.4940139e-05 [W]
rho max/avg/min : 1.2016452 1.2015412 1.2014376
T   max/avg/min : 293.70007 293.70005 293.7
P   max/avg/min : 101324.91 101316.16 101307.41
Prg max/avg/min : 101325 101325 101325
U   max/avg/min : 4.7259057e-07 -6.0548639e-07 -2.043243e-06
Prg max-min : 0.0015245355
 
Iteration Number = 791

DILUPBiCG:  Solving for Ux, Initial residual = 0.3625865, Final residual = 4.7618798e-05, No Iterations 2
DILUPBiCG:  Solving for Uy, Initial residual = 1.9334437e-07, Final residual = 1.1688596e-09, No Iterations 1
DILUPBiCG:  Solving for Uz, Initial residual = 0.02254008, Final residual = 2.8456976e-06, No Iterations 2
DILUPBiCG:  Solving for h, Initial residual = 0.00029399669, Final residual = 5.5356966e-07, No Iterations 4
MACARENA
GAMG:  Solving for p_rgh, Initial residual = 6.3901476e-05, Final residual = 6.3901476e-05, No Iterations 0
MACARENA
MACARENA
time step continuity errors : sum local = 3.5016432e-06, global = 1.1574228e-07, cumulative = 1.2382193e-05
ExecutionTime = 26.76 s  ClockTime = 27 s
Inflow      : -1.4527442e-10 [kg/s]
Outflow     : -4.8745432e-11 [kg/s]
EnergyInflow  : -4.29231e-05 [W]
EnergyOutflow : -1.4402433e-05 [W]
rho max/avg/min : 1.2016452 1.2015412 1.2014376
T   max/avg/min : 293.70007 293.70005 293.7
P   max/avg/min : 101324.91 101316.16 101307.41
Prg max/avg/min : 101325 101325 101325
U   max/avg/min : 5.0436023e-07 -5.8612179e-07 -2.0366656e-06
Prg max-min : 0.0015245355
 
Iteration Number = 792

DILUPBiCG:  Solving for Ux, Initial residual = 0.28499255, Final residual = 3.5493378e-05, No Iterations 2
DILUPBiCG:  Solving for Uy, Initial residual = 2.2110319e-07, Final residual = 1.3880436e-09, No Iterations 1
DILUPBiCG:  Solving for Uz, Initial residual = 0.021743925, Final residual = 2.8725216e-06, No Iterations 2
DILUPBiCG:  Solving for h, Initial residual = 0.00032700201, Final residual = 8.0288433e-07, No Iterations 4
MACARENA
