/*---------------------------------------------------------------------------*\
| =========                 |                                                 |
| \\      /  F ield         | OpenFOAM: The Open Source CFD Toolbox           |
|  \\    /   O peration     | Version:  4.0                                   |
|   \\  /    A nd           | Web:      www.OpenFOAM.org                      |
|    \\/     M anipulation  |                                                 |
\*---------------------------------------------------------------------------*/
Build  : 4.0-665f1db4c1f1
Exec   : pupoBuoyantSimpleFoam
Date   : Sep 26 2016
Time   : 22:58:25
Host   : "FAB2000"
PID    : 12349
Case   : /home/pedro/Documents/ThesisProject/OpenFoam/validation1rod/P1-Model
nProcs : 1
sigFpe : Enabling floating point exception trapping (FOAM_SIGFPE).
fileModificationChecking : Monitoring run-time modified files using timeStampMaster
allowSystemOperations : Allowing user-supplied system call operations

// * * * * * * * * * * * * * * * * * * * * * * * * * * * * * * * * * * * * * //
Create time

Create mesh for time = 0


SIMPLE: convergence criteria
    field p_rgh	 tolerance 1e-06
    field Uz	 tolerance 1e-06
    field h	 tolerance 1e-06

Reading thermophysical properties

Selecting thermodynamics package 
{
    type            heRhoThermo;
    mixture         pureMixture;
    transport       sutherland;
    thermo          hConst;
    equationOfState perfectGas;
    specie          specie;
    energy          sensibleEnthalpy;
}


Reading g

Reading hRef
Calculating field g.h

Selecting turbulence model type laminar
No MRF models present

Selecting radiationModel P1
Selecting absorptionEmissionModel constantAbsorptionEmission
Selecting scatterModel none
 
rho max/avg/min : 1.2016452 1.2015414 1.2014377
T   max/avg/min : 293.7 293.7 293.7
P   max/avg/min : 101324.91 101316.16 101307.41
Prg max/avg/min : 101325 101325 101325
U   max/avg/min : 0 0 0
 
sngrad(rho) :-0.00013977519 -0.00013977519 -0.00013977519
 
No finite volume options present


Starting Iteration loop

Iteration Number = 1

DILUPBiCG:  Solving for Ux, Initial residual = 2.3034354e-10, Final residual = 2.3034354e-10, No Iterations 0
DILUPBiCG:  Solving for Uy, Initial residual = 4.8698736e-07, Final residual = 2.590422e-09, No Iterations 1
DILUPBiCG:  Solving for Uz, Initial residual = 1, Final residual = 0.0001017747, No Iterations 2
DILUPBiCG:  Solving for h, Initial residual = 1, Final residual = 0.00045978974, No Iterations 1
GAMG:  Solving for G, Initial residual = 1, Final residual = 0.0055211011, No Iterations 1000
GAMG:  Solving for p_rgh, Initial residual = 0.53730803, Final residual = 0.0003498751, No Iterations 3
time step continuity errors : sum local = 3.3535734e-05, global = -1.4291359e-05, cumulative = -1.4291359e-05
ExecutionTime = 0.89 s  ClockTime = 1 s
Inflow      : -1.3042684e-07 [kg/s]
Outflow     : -1.4234582e-07 [kg/s]
EnergyInflow  : -0.0385362 [W]
EnergyOutflow : -0.04205781 [W]
EnergyBalance : -0.0035216095 [W]
rho max/avg/min : 1.2016452 1.2001092 1.1762176
T   max/avg/min : 299.99741 294.05464 293.7
P   max/avg/min : 101324.91 101316.16 101307.41
Prg max/avg/min : 101325 101324.99 101324.63
U   max/avg/min : 1.8946467e-05 -4.7285731e-05 -0.00052017086
Prg max-min : 0.37012396
 
sngrad(rho) :3.3625301 0.19086319 -0.00013813566
 
Iteration Number = 2

DILUPBiCG:  Solving for Ux, Initial residual = 0.30793813, Final residual = 2.4195982e-05, No Iterations 2
DILUPBiCG:  Solving for Uy, Initial residual = 5.2831968e-05, Final residual = 4.0210194e-09, No Iterations 2
DILUPBiCG:  Solving for Uz, Initial residual = 0.34750675, Final residual = 9.4281486e-06, No Iterations 2
DILUPBiCG:  Solving for h, Initial residual = 0.2521557, Final residual = 6.6998933e-05, No Iterations 1
GAMG:  Solving for p_rgh, Initial residual = 0.027431885, Final residual = 1.5154668e-05, No Iterations 4
time step continuity errors : sum local = 1.5608737e-05, global = 6.1580211e-07, cumulative = -1.3675557e-05
ExecutionTime = 0.92 s  ClockTime = 1 s
Inflow      : -2.197842e-07 [kg/s]
Outflow     : -2.1927062e-07 [kg/s]
EnergyInflow  : -0.064937922 [W]
EnergyOutflow : -0.064786179 [W]
EnergyBalance : 0.00015174306 [W]
rho max/avg/min : 1.2016452 1.198774 1.1633073
T   max/avg/min : 303.3273 294.38971 293.7
P   max/avg/min : 101324.91 101316.16 101307.41
Prg max/avg/min : 101325 101324.98 101324.44
U   max/avg/min : 5.8207646e-05 -7.5316076e-05 -0.00052059774
Prg max-min : 0.55959029
 
sngrad(rho) :5.0828062 0.36865379 -0.0001356068
 
Iteration Number = 3

DILUPBiCG:  Solving for Ux, Initial residual = 0.33044381, Final residual = 3.4827917e-05, No Iterations 2
DILUPBiCG:  Solving for Uy, Initial residual = 6.1916866e-05, Final residual = 6.0996169e-09, No Iterations 2
DILUPBiCG:  Solving for Uz, Initial residual = 0.079596183, Final residual = 2.0498718e-06, No Iterations 2
DILUPBiCG:  Solving for h, Initial residual = 0.16273531, Final residual = 4.9014533e-05, No Iterations 1
GAMG:  Solving for p_rgh, Initial residual = 0.011387552, Final residual = 7.6289339e-06, No Iterations 3
time step continuity errors : sum local = 1.4311184e-05, global = 5.7700534e-06, cumulative = -7.9055036e-06
ExecutionTime = 0.94 s  ClockTime = 1 s
Inflow      : -1.7891276e-07 [kg/s]
Outflow     : -1.7410054e-07 [kg/s]
EnergyInflow  : -0.052861957 [W]
EnergyOutflow : -0.05144009 [W]
EnergyBalance : 0.0014218667 [W]
rho max/avg/min : 1.2016452 1.1974353 1.1535397
T   max/avg/min : 305.89575 294.72839 293.70001
P   max/avg/min : 101324.91 101316.16 101307.41
Prg max/avg/min : 101325 101324.97 101324.3
U   max/avg/min : 0.00011086748 -5.1009439e-05 -0.00042506429
Prg max-min : 0.70298054
 
sngrad(rho) :1.3027867 0.182675 -0.00013310318
 
Iteration Number = 4

DILUPBiCG:  Solving for Ux, Initial residual = 0.23603113, Final residual = 2.2042402e-05, No Iterations 2
DILUPBiCG:  Solving for Uy, Initial residual = 5.2807666e-05, Final residual = 4.5974236e-09, No Iterations 2
DILUPBiCG:  Solving for Uz, Initial residual = 0.19455747, Final residual = 4.2983499e-06, No Iterations 2
DILUPBiCG:  Solving for h, Initial residual = 0.1192841, Final residual = 4.5450722e-05, No Iterations 1
GAMG:  Solving for p_rgh, Initial residual = 0.0072802756, Final residual = 1.7966103e-06, No Iterations 3
time step continuity errors : sum local = 4.8483271e-06, global = 2.2183557e-07, cumulative = -7.683668e-06
ExecutionTime = 0.98 s  ClockTime = 1 s
Inflow      : -1.4088079e-07 [kg/s]
Outflow     : -1.4069578e-07 [kg/s]
EnergyInflow  : -0.041624949 [W]
EnergyOutflow : -0.041570171 [W]
EnergyBalance : 5.4778496e-05 [W]
rho max/avg/min : 1.2016452 1.1960845 1.1453377
T   max/avg/min : 308.08638 295.07248 293.70002
P   max/avg/min : 101324.91 101316.16 101307.41
Prg max/avg/min : 101325 101324.96 101324.18
U   max/avg/min : 0.00018378147 -2.0617701e-05 -0.00034210318
Prg max-min : 0.82290022
 
sngrad(rho) :1.0999555 0.18262017 -0.00013067243
 
Iteration Number = 5

DILUPBiCG:  Solving for Ux, Initial residual = 0.15007448, Final residual = 1.0509454e-05, No Iterations 2
DILUPBiCG:  Solving for Uy, Initial residual = 3.5332796e-05, Final residual = 2.8328687e-09, No Iterations 2
DILUPBiCG:  Solving for Uz, Initial residual = 0.13327891, Final residual = 6.2158056e-07, No Iterations 2
DILUPBiCG:  Solving for h, Initial residual = 0.094933364, Final residual = 4.6206238e-05, No Iterations 1
GAMG:  Solving for p_rgh, Initial residual = 0.0054870454, Final residual = 2.0527887e-06, No Iterations 3
time step continuity errors : sum local = 7.1973925e-06, global = 1.5740701e-06, cumulative = -6.1095979e-06
ExecutionTime = 1.01 s  ClockTime = 1 s
Inflow      : -1.1606364e-07 [kg/s]
Outflow     : -1.1475086e-07 [kg/s]
EnergyInflow  : -0.034292418 [W]
EnergyOutflow : -0.033904274 [W]
EnergyBalance : 0.00038814384 [W]
rho max/avg/min : 1.2016452 1.1947201 1.1381154
T   max/avg/min : 310.04139 295.42204 293.70002
P   max/avg/min : 101324.91 101316.16 101307.41
Prg max/avg/min : 101325 101324.95 101324.07
U   max/avg/min : 0.00026931646 1.4341838e-05 -0.0002834664
Prg max-min : 0.92872432
 
sngrad(rho) :0.97369339 0.18388479 -0.00012854405
 
Iteration Number = 6

DILUPBiCG:  Solving for Ux, Initial residual = 0.12389795, Final residual = 6.1413317e-06, No Iterations 2
DILUPBiCG:  Solving for Uy, Initial residual = 3.3447538e-05, Final residual = 2.5363983e-09, No Iterations 2
DILUPBiCG:  Solving for Uz, Initial residual = 0.17253335, Final residual = 1.1603943e-06, No Iterations 2
DILUPBiCG:  Solving for h, Initial residual = 0.079288653, Final residual = 4.8593509e-05, No Iterations 1
GAMG:  Solving for p_rgh, Initial residual = 0.0045214879, Final residual = 3.7168045e-06, No Iterations 3
time step continuity errors : sum local = 1.6103172e-05, global = 6.2132486e-06, cumulative = 1.0365068e-07
ExecutionTime = 1.04 s  ClockTime = 1 s
Inflow      : -9.9834294e-08 [kg/s]
Outflow     : -9.4652448e-08 [kg/s]
EnergyInflow  : -0.02949726 [W]
EnergyOutflow : -0.027965679 [W]
EnergyBalance : 0.0015315807 [W]
rho max/avg/min : 1.2016451 1.1933427 1.1315816
T   max/avg/min : 311.83122 295.7768 293.70002
P   max/avg/min : 101324.91 101316.16 101307.41
Prg max/avg/min : 101325 101324.94 101323.98
U   max/avg/min : 0.00037567754 5.7716477e-05 -0.00024622144
Prg max-min : 1.0243055
 
sngrad(rho) :0.88316333 0.18507857 -0.00012885698
 
Iteration Number = 7

DILUPBiCG:  Solving for Ux, Initial residual = 0.19121219, Final residual = 8.5281893e-06, No Iterations 2
DILUPBiCG:  Solving for Uy, Initial residual = 3.146707e-05, Final residual = 2.3145707e-09, No Iterations 2
DILUPBiCG:  Solving for Uz, Initial residual = 0.15091444, Final residual = 0.00011384123, No Iterations 1
DILUPBiCG:  Solving for h, Initial residual = 0.068338561, Final residual = 5.2536e-05, No Iterations 1
GAMG:  Solving for p_rgh, Initial residual = 0.0039582819, Final residual = 1.1939663e-06, No Iterations 4
time step continuity errors : sum local = 6.1653035e-06, global = 2.5086385e-06, cumulative = 2.6122892e-06
ExecutionTime = 1.07 s  ClockTime = 1 s
Inflow      : -8.1004866e-08 [kg/s]
Outflow     : -7.8912663e-08 [kg/s]
EnergyInflow  : -0.023933876 [W]
EnergyOutflow : -0.02331472 [W]
EnergyBalance : 0.00061915604 [W]
rho max/avg/min : 1.2016451 1.1919533 1.1255685
T   max/avg/min : 313.4969 296.13642 293.70002
P   max/avg/min : 101324.91 101316.16 101307.41
Prg max/avg/min : 101325 101324.93 101323.89
U   max/avg/min : 0.00049714436 0.00011507266 -0.00021301338
Prg max-min : 1.1123886
 
sngrad(rho) :0.81415369 0.1866731 -0.00012932999
 
Iteration Number = 8

DILUPBiCG:  Solving for Ux, Initial residual = 0.25878264, Final residual = 1.1348634e-05, No Iterations 2
DILUPBiCG:  Solving for Uy, Initial residual = 3.5001062e-05, Final residual = 2.3559843e-09, No Iterations 2
DILUPBiCG:  Solving for Uz, Initial residual = 0.16634499, Final residual = 7.628456e-07, No Iterations 2
DILUPBiCG:  Solving for h, Initial residual = 0.060269888, Final residual = 5.7414164e-05, No Iterations 1
GAMG:  Solving for p_rgh, Initial residual = 0.0036301149, Final residual = 9.3433705e-07, No Iterations 4
time step continuity errors : sum local = 5.6187719e-06, global = 1.5208256e-06, cumulative = 4.1331148e-06
ExecutionTime = 1.1 s  ClockTime = 1 s
Inflow      : -6.7695365e-08 [kg/s]
Outflow     : -6.6426997e-08 [kg/s]
EnergyInflow  : -0.020001422 [W]
EnergyOutflow : -0.019624975 [W]
EnergyBalance : 0.00037644655 [W]
rho max/avg/min : 1.2016451 1.1905529 1.1199672
T   max/avg/min : 315.0648 296.50057 293.70002
P   max/avg/min : 101324.91 101316.16 101307.41
Prg max/avg/min : 101325 101324.92 101323.81
U   max/avg/min : 0.00064316079 0.00018813943 -0.00018764279
Prg max-min : 1.1943416
 
sngrad(rho) :0.76028238 0.1880678 -0.00012940713
 
Iteration Number = 9

DILUPBiCG:  Solving for Ux, Initial residual = 0.19973989, Final residual = 8.1363209e-06, No Iterations 2
DILUPBiCG:  Solving for Uy, Initial residual = 3.8380889e-05, Final residual = 2.4127731e-09, No Iterations 2
DILUPBiCG:  Solving for Uz, Initial residual = 0.15743652, Final residual = 8.9016371e-05, No Iterations 1
DILUPBiCG:  Solving for h, Initial residual = 0.054027162, Final residual = 2.2350988e-06, No Iterations 2
GAMG:  Solving for p_rgh, Initial residual = 0.0034377615, Final residual = 9.3240816e-07, No Iterations 4
time step continuity errors : sum local = 6.4092769e-06, global = -3.4201489e-07, cumulative = 3.7910999e-06
ExecutionTime = 1.13 s  ClockTime = 1 s
Inflow      : -5.5980555e-08 [kg/s]
Outflow     : -5.6265795e-08 [kg/s]
EnergyInflow  : -0.016540138 [W]
EnergyOutflow : -0.016621657 [W]
EnergyBalance : -8.1519324e-05 [W]
rho max/avg/min : 1.2016451 1.1891406 1.1147051
T   max/avg/min : 316.5521 296.86939 293.70002
P   max/avg/min : 101324.91 101316.16 101307.41
Prg max/avg/min : 101325 101324.91 101323.73
U   max/avg/min : 0.00081204306 0.00027996886 -0.00017291389
Prg max-min : 1.271371
 
sngrad(rho) :0.71688255 0.1893684 -0.00012822848
 
Iteration Number = 10

DILUPBiCG:  Solving for Ux, Initial residual = 0.12216548, Final residual = 4.6163326e-06, No Iterations 2
DILUPBiCG:  Solving for Uy, Initial residual = 4.7322119e-05, Final residual = 2.3965208e-09, No Iterations 2
DILUPBiCG:  Solving for Uz, Initial residual = 0.15592469, Final residual = 8.7793769e-05, No Iterations 1
DILUPBiCG:  Solving for h, Initial residual = 0.049078344, Final residual = 2.937068e-06, No Iterations 2
GAMG:  Solving for G, Initial residual = 0.57735635, Final residual = 0.23861604, No Iterations 1000
GAMG:  Solving for p_rgh, Initial residual = 0.0033466155, Final residual = 1.5651356e-06, No Iterations 4
time step continuity errors : sum local = 1.2132496e-05, global = 3.7765654e-06, cumulative = 7.5676653e-06
ExecutionTime = 1.95 s  ClockTime = 2 s
Inflow      : -5.1420227e-08 [kg/s]
Outflow     : -4.8270574e-08 [kg/s]
EnergyInflow  : -0.015192734 [W]
EnergyOutflow : -0.014257792 [W]
EnergyBalance : 0.00093494151 [W]
rho max/avg/min : 1.2016451 1.1877189 1.1097254
T   max/avg/min : 317.97292 297.24221 293.70003
P   max/avg/min : 101324.91 101316.16 101307.41
Prg max/avg/min : 101325 101324.9 101323.66
U   max/avg/min : 0.0010100363 0.00039558542 -0.00016888639
Prg max-min : 1.3442408
 
sngrad(rho) :0.68029167 0.19055872 -0.00012468146
 
Iteration Number = 11

DILUPBiCG:  Solving for Ux, Initial residual = 0.11743234, Final residual = 4.3612856e-06, No Iterations 2
DILUPBiCG:  Solving for Uy, Initial residual = 5.950866e-05, Final residual = 2.0992502e-09, No Iterations 2
DILUPBiCG:  Solving for Uz, Initial residual = 0.1526715, Final residual = 8.7006022e-05, No Iterations 1
DILUPBiCG:  Solving for h, Initial residual = 0.056191484, Final residual = 2.9710466e-06, No Iterations 2
GAMG:  Solving for p_rgh, Initial residual = 0.0052845305, Final residual = 1.0962494e-06, No Iterations 4
time step continuity errors : sum local = 9.4532733e-06, global = 1.7588974e-06, cumulative = 9.3265627e-06
ExecutionTime = 1.99 s  ClockTime = 2 s
Inflow      : -4.2980169e-08 [kg/s]
Outflow     : -4.151325e-08 [kg/s]
EnergyInflow  : -0.012699015 [W]
EnergyOutflow : -0.012258961 [W]
EnergyBalance : 0.00044005454 [W]
rho max/avg/min : 1.2016451 1.1866887 1.1118896
T   max/avg/min : 317.35464 297.50666 293.70004
P   max/avg/min : 101324.91 101316.16 101307.41
Prg max/avg/min : 101325 101324.89 101323.69
U   max/avg/min : 0.0012435344 0.00053895149 -0.00017194286
Prg max-min : 1.3125146
 
sngrad(rho) :0.52823725 0.13833803 -0.28867894
 
Iteration Number = 12

DILUPBiCG:  Solving for Ux, Initial residual = 0.090794453, Final residual = 3.2546065e-06, No Iterations 2
DILUPBiCG:  Solving for Uy, Initial residual = 8.3331651e-05, Final residual = 1.8717367e-09, No Iterations 2
DILUPBiCG:  Solving for Uz, Initial residual = 0.14986715, Final residual = 0.0001009189, No Iterations 1
DILUPBiCG:  Solving for h, Initial residual = 0.031120379, Final residual = 3.7062218e-06, No Iterations 2
GAMG:  Solving for p_rgh, Initial residual = 0.0040985486, Final residual = 2.4830881e-06, No Iterations 4
time step continuity errors : sum local = 2.30497e-05, global = 8.5781033e-06, cumulative = 1.7904666e-05
ExecutionTime = 2.01 s  ClockTime = 2 s
Inflow      : -4.3430514e-08 [kg/s]
Outflow     : -3.6276381e-08 [kg/s]
EnergyInflow  : -0.012832075 [W]
EnergyOutflow : -0.010708488 [W]
EnergyBalance : 0.0021235876 [W]
rho max/avg/min : 1.201645 1.1856401 1.1111132
T   max/avg/min : 317.57721 297.778 293.70007
P   max/avg/min : 101324.91 101316.16 101307.41
Prg max/avg/min : 101325 101324.88 101323.68
U   max/avg/min : 0.0015217456 0.0007137316 -0.00019836538
Prg max-min : 1.3238136
 
sngrad(rho) :0.46003971 0.14111529 -0.00010377838
 
Iteration Number = 13

DILUPBiCG:  Solving for Ux, Initial residual = 0.093170286, Final residual = 3.41924e-06, No Iterations 2
DILUPBiCG:  Solving for Uy, Initial residual = 0.00010963005, Final residual = 2.3144728e-09, No Iterations 2
DILUPBiCG:  Solving for Uz, Initial residual = 0.14896121, Final residual = 0.00014449369, No Iterations 1
DILUPBiCG:  Solving for h, Initial residual = 0.0277409, Final residual = 5.6524561e-06, No Iterations 2
GAMG:  Solving for p_rgh, Initial residual = 0.0039685796, Final residual = 1.7822302e-06, No Iterations 4
time step continuity errors : sum local = 1.7719111e-05, global = 3.7061057e-06, cumulative = 2.1610772e-05
ExecutionTime = 2.05 s  ClockTime = 2 s
Inflow      : -3.503837e-08 [kg/s]
Outflow     : -3.194748e-08 [kg/s]
EnergyInflow  : -0.010352514 [W]
EnergyOutflow : -0.0094250215 [W]
EnergyBalance : 0.00092749224 [W]
rho max/avg/min : 1.2016448 1.1845889 1.1095948
T   max/avg/min : 318.01282 298.05124 293.70011
P   max/avg/min : 101324.91 101316.16 101307.41
Prg max/avg/min : 101325 101324.87 101323.65
U   max/avg/min : 0.0018533364 0.00092585111 -0.0002359877
Prg max-min : 1.3459811
 
sngrad(rho) :0.41637172 0.14165589 -8.0984898e-05
 
Iteration Number = 14

DILUPBiCG:  Solving for Ux, Initial residual = 0.081170264, Final residual = 3.1222157e-06, No Iterations 2
DILUPBiCG:  Solving for Uy, Initial residual = 0.00015472919, Final residual = 2.7070928e-09, No Iterations 2
DILUPBiCG:  Solving for Uz, Initial residual = 0.14855758, Final residual = 1.2256647e-06, No Iterations 2
DILUPBiCG:  Solving for h, Initial residual = 0.026652104, Final residual = 6.5000131e-06, No Iterations 2
GAMG:  Solving for p_rgh, Initial residual = 0.0040185057, Final residual = 3.1297069e-06, No Iterations 4
time step continuity errors : sum local = 3.3209594e-05, global = 1.3986518e-05, cumulative = 3.5597289e-05
ExecutionTime = 2.08 s  ClockTime = 2 s
Inflow      : -4.0687723e-08 [kg/s]
Outflow     : -2.9022976e-08 [kg/s]
EnergyInflow  : -0.012021684 [W]
EnergyOutflow : -0.0085547908 [W]
EnergyBalance : 0.0034668933 [W]
rho max/avg/min : 1.2016445 1.1835369 1.1077808
T   max/avg/min : 318.53485 298.32562 293.70017
P   max/avg/min : 101324.91 101316.16 101307.41
Prg max/avg/min : 101325 101324.87 101323.63
U   max/avg/min : 0.0022469551 0.0011783702 -0.00032900008
Prg max-min : 1.3724161
 
sngrad(rho) :0.38431875 0.1422891 -4.5081883e-05
 
Iteration Number = 15

DILUPBiCG:  Solving for Ux, Initial residual = 0.085214515, Final residual = 3.4866392e-06, No Iterations 2
DILUPBiCG:  Solving for Uy, Initial residual = 0.00019307254, Final residual = 4.5297855e-09, No Iterations 2
DILUPBiCG:  Solving for Uz, Initial residual = 0.14756243, Final residual = 1.7917059e-06, No Iterations 2
DILUPBiCG:  Solving for h, Initial residual = 0.025642251, Final residual = 9.2398526e-06, No Iterations 2
GAMG:  Solving for p_rgh, Initial residual = 0.0041759206, Final residual = 2.3930425e-06, No Iterations 4
time step continuity errors : sum local = 2.6988146e-05, global = 5.5494646e-06, cumulative = 4.1146754e-05
ExecutionTime = 2.11 s  ClockTime = 2 s
Inflow      : -3.1510917e-08 [kg/s]
Outflow     : -2.6882667e-08 [kg/s]
EnergyInflow  : -0.0093102848 [W]
EnergyOutflow : -0.0079139266 [W]
EnergyBalance : 0.0013963582 [W]
rho max/avg/min : 1.201644 1.1824841 1.1058237
T   max/avg/min : 319.10018 298.60101 293.70027
P   max/avg/min : 101324.91 101316.16 101307.41
Prg max/avg/min : 101325 101324.86 101323.6
U   max/avg/min : 0.002716016 0.001478547 -0.00043568117
Prg max-min : 1.4009637
 
sngrad(rho) :0.36122436 0.14308429 9.4124927e-06
 
Iteration Number = 16

DILUPBiCG:  Solving for Ux, Initial residual = 0.076903269, Final residual = 3.3653413e-06, No Iterations 2
DILUPBiCG:  Solving for Uy, Initial residual = 0.00029054858, Final residual = 6.0965853e-09, No Iterations 2
DILUPBiCG:  Solving for Uz, Initial residual = 0.14514669, Final residual = 1.8416102e-06, No Iterations 2
DILUPBiCG:  Solving for h, Initial residual = 0.024721522, Final residual = 1.0902454e-05, No Iterations 2
GAMG:  Solving for p_rgh, Initial residual = 0.0044034213, Final residual = 3.7513629e-06, No Iterations 4
time step continuity errors : sum local = 4.4846455e-05, global = 2.0546366e-05, cumulative = 6.1693119e-05
ExecutionTime = 2.15 s  ClockTime = 2 s
Inflow      : -4.2891326e-08 [kg/s]
Outflow     : -2.5755669e-08 [kg/s]
EnergyInflow  : -0.012672766 [W]
EnergyOutflow : -0.0075692857 [W]
EnergyBalance : 0.0051034799 [W]
rho max/avg/min : 1.2016434 1.181431 1.1037929
T   max/avg/min : 319.68918 298.87727 293.70042
P   max/avg/min : 101324.91 101316.16 101307.41
Prg max/avg/min : 101325 101324.85 101323.57
U   max/avg/min : 0.0032717447 0.0018280749 -0.00063169475
Prg max-min : 1.4305009
 
sngrad(rho) :0.34368229 0.14408889 8.7961281e-05
 
Iteration Number = 17

DILUPBiCG:  Solving for Ux, Initial residual = 0.081091509, Final residual = 3.8742246e-06, No Iterations 2
DILUPBiCG:  Solving for Uy, Initial residual = 0.0003632848, Final residual = 9.4698565e-09, No Iterations 2
DILUPBiCG:  Solving for Uz, Initial residual = 0.14218046, Final residual = 2.4838607e-06, No Iterations 2
DILUPBiCG:  Solving for h, Initial residual = 0.023855673, Final residual = 1.3885484e-05, No Iterations 2
GAMG:  Solving for p_rgh, Initial residual = 0.0046891936, Final residual = 3.0448786e-06, No Iterations 4
time step continuity errors : sum local = 3.8440154e-05, global = 7.3529847e-06, cumulative = 6.9046104e-05
ExecutionTime = 2.18 s  ClockTime = 2 s
Inflow      : -3.1356192e-08 [kg/s]
Outflow     : -2.5223807e-08 [kg/s]
EnergyInflow  : -0.0092645696 [W]
EnergyOutflow : -0.0073961722 [W]
EnergyBalance : 0.0018683974 [W]
rho max/avg/min : 1.2016423 1.1803772 1.1017259
T   max/avg/min : 320.29123 299.15443 293.70062
P   max/avg/min : 101324.91 101316.16 101307.41
Prg max/avg/min : 101325 101324.84 101323.54
U   max/avg/min : 0.003925657 0.0022356329 -0.00083989149
Prg max-min : 1.4605922
 
sngrad(rho) :0.33026719 0.14539573 0.00019981265
 
Iteration Number = 18

DILUPBiCG:  Solving for Ux, Initial residual = 0.074730342, Final residual = 3.9522406e-06, No Iterations 2
DILUPBiCG:  Solving for Uy, Initial residual = 0.00046119625, Final residual = 1.3043495e-08, No Iterations 2
DILUPBiCG:  Solving for Uz, Initial residual = 0.13743213, Final residual = 2.3761474e-06, No Iterations 2
DILUPBiCG:  Solving for h, Initial residual = 0.023047528, Final residual = 1.3236736e-05, No Iterations 3
GAMG:  Solving for p_rgh, Initial residual = 0.0049901909, Final residual = 4.3532783e-06, No Iterations 4
time step continuity errors : sum local = 5.789401e-05, global = 2.8089391e-05, cumulative = 9.7135495e-05
ExecutionTime = 2.21 s  ClockTime = 2 s
Inflow      : -4.8585943e-08 [kg/s]
Outflow     : -2.5159407e-08 [kg/s]
EnergyInflow  : -0.01435531 [W]
EnergyOutflow : -0.0073552799 [W]
EnergyBalance : 0.0070000297 [W]
rho max/avg/min : 1.2016403 1.1793219 1.0996434
T   max/avg/min : 320.90045 299.43266 293.70099
P   max/avg/min : 101324.91 101316.16 101307.41
Prg max/avg/min : 101325 101324.84 101323.51
U   max/avg/min : 0.004699226 0.0027004261 -0.0011562273
Prg max-min : 1.4907535
 
sngrad(rho) :0.31991185 0.14710871 0.00039774586
 
Iteration Number = 19

DILUPBiCG:  Solving for Ux, Initial residual = 0.079469351, Final residual = 4.7284822e-06, No Iterations 2
DILUPBiCG:  Solving for Uy, Initial residual = 0.00056581683, Final residual = 2.0111832e-08, No Iterations 2
DILUPBiCG:  Solving for Uz, Initial residual = 0.13215279, Final residual = 3.0678922e-06, No Iterations 2
DILUPBiCG:  Solving for h, Initial residual = 0.022287593, Final residual = 1.947493e-05, No Iterations 3
GAMG:  Solving for p_rgh, Initial residual = 0.0052680861, Final residual = 3.686063e-06, No Iterations 4
time step continuity errors : sum local = 5.1461368e-05, global = 8.7923365e-06, cumulative = 0.00010592783
ExecutionTime = 2.24 s  ClockTime = 2 s
Inflow      : -3.1459323e-08 [kg/s]
Outflow     : -2.412652e-08 [kg/s]
EnergyInflow  : -0.0092950408 [W]
EnergyOutflow : -0.0070201949 [W]
EnergyBalance : 0.0022748459 [W]
rho max/avg/min : 1.2016372 1.1782663 1.0975591
T   max/avg/min : 321.51294 299.71163 293.70149
P   max/avg/min : 101324.91 101316.16 101307.41
Prg max/avg/min : 101325 101324.83 101323.48
U   max/avg/min : 0.0055995949 0.0032339585 -0.0014846317
Prg max-min : 1.5209711
 
sngrad(rho) :0.31164916 0.14933626 0.00067025082
 
Iteration Number = 20

DILUPBiCG:  Solving for Ux, Initial residual = 0.075732039, Final residual = 5.2635044e-06, No Iterations 2
DILUPBiCG:  Solving for Uy, Initial residual = 0.00078422866, Final residual = 3.2208884e-08, No Iterations 2
DILUPBiCG:  Solving for Uz, Initial residual = 0.12533335, Final residual = 2.6374931e-06, No Iterations 2
DILUPBiCG:  Solving for h, Initial residual = 0.021568049, Final residual = 4.3302912e-07, No Iterations 5
GAMG:  Solving for G, Initial residual = 0.14990608, Final residual = 0.11565797, No Iterations 1000
GAMG:  Solving for p_rgh, Initial residual = 0.0057040622, Final residual = 5.1071242e-06, No Iterations 4
time step continuity errors : sum local = 7.4720637e-05, global = 3.5458433e-05, cumulative = 0.00014138626
ExecutionTime = 3.07 s  ClockTime = 3 s
Inflow      : -5.1440701e-08 [kg/s]
Outflow     : -2.1868389e-08 [kg/s]
EnergyInflow  : -0.015198783 [W]
EnergyOutflow : -0.0063120411 [W]
EnergyBalance : 0.0088867415 [W]
rho max/avg/min : 1.2016333 1.1772103 1.0954826
T   max/avg/min : 322.12589 299.99136 293.70214
P   max/avg/min : 101324.91 101316.16 101307.41
Prg max/avg/min : 101325 101324.82 101323.45
U   max/avg/min : 0.0066533658 0.0038295836 -0.0019397083
Prg max-min : 1.550912
 
sngrad(rho) :0.30488463 0.15174123 0.0010266118
 
Iteration Number = 21

DILUPBiCG:  Solving for Ux, Initial residual = 0.079575054, Final residual = 6.3609872e-06, No Iterations 2
DILUPBiCG:  Solving for Uy, Initial residual = 0.00097222009, Final residual = 4.6344215e-08, No Iterations 2
DILUPBiCG:  Solving for Uz, Initial residual = 0.11840619, Final residual = 3.3060315e-06, No Iterations 2
DILUPBiCG:  Solving for h, Initial residual = 0.021782269, Final residual = 4.2161121e-06, No Iterations 5
GAMG:  Solving for p_rgh, Initial residual = 0.0061839766, Final residual = 4.3615211e-06, No Iterations 4
time step continuity errors : sum local = 6.6650453e-05, global = 1.0596896e-05, cumulative = 0.00015198316
ExecutionTime = 3.1 s  ClockTime = 3 s
Inflow      : -2.4501533e-08 [kg/s]
Outflow     : -1.5663727e-08 [kg/s]
EnergyInflow  : -0.0072392767 [W]
EnergyOutflow : -0.0044227796 [W]
EnergyBalance : 0.0028164971 [W]
rho max/avg/min : 1.2016271 1.1762398 1.0949025
T   max/avg/min : 322.29903 300.24699 293.70301
P   max/avg/min : 101324.91 101316.16 101307.41
Prg max/avg/min : 101325 101324.81 101323.44
U   max/avg/min : 0.007868445 0.0045031191 -0.002396838
Prg max-min : 1.5592936
 
sngrad(rho) :0.29497797 0.14342926 0.0015002223
 
Iteration Number = 22

DILUPBiCG:  Solving for Ux, Initial residual = 0.078275069, Final residual = 7.6749494e-06, No Iterations 2
DILUPBiCG:  Solving for Uy, Initial residual = 0.0010452513, Final residual = 6.2204888e-08, No Iterations 2
DILUPBiCG:  Solving for Uz, Initial residual = 0.11034889, Final residual = 2.691654e-06, No Iterations 2
DILUPBiCG:  Solving for h, Initial residual = 0.018052035, Final residual = 7.8080935e-06, No Iterations 4
GAMG:  Solving for p_rgh, Initial residual = 0.0067109717, Final residual = 6.4048284e-06, No Iterations 4
time step continuity errors : sum local = 0.00010179152, global = 4.1678747e-05, cumulative = 0.00019366191
ExecutionTime = 3.14 s  ClockTime = 3 s
Inflow      : -3.7615322e-08 [kg/s]
Outflow     : -2.8552713e-09 [kg/s]
EnergyInflow  : -0.011113906 [W]
EnergyOutflow : -0.00056164472 [W]
EnergyBalance : 0.010552261 [W]
rho max/avg/min : 1.2016202 1.1752674 1.0936669
T   max/avg/min : 322.66677 300.50395 293.70426
P   max/avg/min : 101324.91 101316.16 101307.41
Prg max/avg/min : 101325 101324.81 101323.42
U   max/avg/min : 0.0092597733 0.0052407842 -0.0029861005
Prg max-min : 1.5772523
 
sngrad(rho) :0.28491236 0.14677237 0.0021863569
 
Iteration Number = 23

DILUPBiCG:  Solving for Ux, Initial residual = 0.081902049, Final residual = 8.9596192e-06, No Iterations 2
DILUPBiCG:  Solving for Uy, Initial residual = 0.0013544581, Final residual = 1.061367e-07, No Iterations 2
DILUPBiCG:  Solving for Uz, Initial residual = 0.10330436, Final residual = 3.1568704e-06, No Iterations 2
DILUPBiCG:  Solving for h, Initial residual = 0.017568613, Final residual = 8.4791719e-06, No Iterations 4
GAMG:  Solving for p_rgh, Initial residual = 0.0072305695, Final residual = 5.4421731e-06, No Iterations 4
time step continuity errors : sum local = 8.9692437e-05, global = 1.4835899e-05, cumulative = 0.00020849781
ExecutionTime = 3.17 s  ClockTime = 3 s
Inflow      : 5.9917582e-09 [kg/s]
Outflow     : 1.8364889e-08 [kg/s]
EnergyInflow  : 0.0017703381 [W]
EnergyOutflow : 0.0058123904 [W]
EnergyBalance : 0.0040420523 [W]
rho max/avg/min : 1.2016155 1.1742973 1.0922544
T   max/avg/min : 323.08832 300.76091 293.70595
P   max/avg/min : 101324.91 101316.16 101307.41
Prg max/avg/min : 101325 101324.8 101323.4
U   max/avg/min : 0.010842397 0.0060650595 -0.0036374031
Prg max-min : 1.597782
 
sngrad(rho) :0.27572007 0.15024562 0.00310682
 
Iteration Number = 24

DILUPBiCG:  Solving for Ux, Initial residual = 0.081425058, Final residual = 1.0775248e-05, No Iterations 2
DILUPBiCG:  Solving for Uy, Initial residual = 0.0015658663, Final residual = 1.4699578e-07, No Iterations 2
DILUPBiCG:  Solving for Uz, Initial residual = 0.095559233, Final residual = 2.7611643e-06, No Iterations 2
DILUPBiCG:  Solving for h, Initial residual = 0.017103148, Final residual = 6.2134425e-06, No Iterations 4
GAMG:  Solving for p_rgh, Initial residual = 0.0080814057, Final residual = 7.1616158e-06, No Iterations 4
time step continuity errors : sum local = 0.000122517, global = 4.7300607e-05, cumulative = 0.00025579841
ExecutionTime = 3.2 s  ClockTime = 3 s
Inflow      : 1.4726562e-08 [kg/s]
Outflow     : 5.417524e-08 [kg/s]
EnergyInflow  : 0.0043511425 [W]
EnergyOutflow : 0.016533959 [W]
EnergyBalance : 0.012182817 [W]
rho max/avg/min : 1.2016156 1.173331 1.0907656
T   max/avg/min : 323.53411 301.01748 293.70725
P   max/avg/min : 101324.91 101316.16 101307.41
Prg max/avg/min : 101325 101324.79 101323.38
U   max/avg/min : 0.012623534 0.0069528149 -0.0044359574
Prg max-min : 1.6193657
 
sngrad(rho) :0.26788057 0.15282478 0.0044565354
 
Iteration Number = 25

DILUPBiCG:  Solving for Ux, Initial residual = 0.08289116, Final residual = 1.0931177e-05, No Iterations 2
DILUPBiCG:  Solving for Uy, Initial residual = 0.0018003273, Final residual = 1.8674109e-07, No Iterations 2
DILUPBiCG:  Solving for Uz, Initial residual = 0.089065497, Final residual = 3.0630055e-06, No Iterations 2
DILUPBiCG:  Solving for h, Initial residual = 0.016639938, Final residual = 6.6162365e-06, No Iterations 4
GAMG:  Solving for p_rgh, Initial residual = 0.008652753, Final residual = 5.6413203e-06, No Iterations 4
time step continuity errors : sum local = 9.9945361e-05, global = 1.7764844e-05, cumulative = 0.00027356326
ExecutionTime = 3.24 s  ClockTime = 3 s
Inflow      : 9.7114184e-08 [kg/s]
Outflow     : 1.1193005e-07 [kg/s]
EnergyInflow  : 0.02869357 [W]
EnergyOutflow : 0.033785082 [W]
EnergyBalance : 0.0050915119 [W]
rho max/avg/min : 1.2016173 1.1723687 1.0892365
T   max/avg/min : 323.99342 301.27356 293.70683
P   max/avg/min : 101324.91 101316.16 101307.41
Prg max/avg/min : 101325 101324.79 101323.36
U   max/avg/min : 0.014609933 0.0079349266 -0.0053006514
Prg max-min : 1.641521
 
sngrad(rho) :0.26120742 0.15591643 0.0061094774
 
Iteration Number = 26

DILUPBiCG:  Solving for Ux, Initial residual = 0.080637525, Final residual = 1.2414262e-05, No Iterations 2
DILUPBiCG:  Solving for Uy, Initial residual = 0.0020534994, Final residual = 3.6688426e-07, No Iterations 2
DILUPBiCG:  Solving for Uz, Initial residual = 0.082188846, Final residual = 2.9624706e-06, No Iterations 2
DILUPBiCG:  Solving for h, Initial residual = 0.016194342, Final residual = 6.2914696e-06, No Iterations 4
GAMG:  Solving for p_rgh, Initial residual = 0.0095911054, Final residual = 7.0259771e-06, No Iterations 4
time step continuity errors : sum local = 0.00012929051, global = 5.0469325e-05, cumulative = 0.00032403258
ExecutionTime = 3.26 s  ClockTime = 3 s
Inflow      : 1.4296286e-07 [kg/s]
Outflow     : 1.8505424e-07 [kg/s]
EnergyInflow  : 0.04224012 [W]
EnergyOutflow : 0.055632122 [W]
EnergyBalance : 0.013392003 [W]
rho max/avg/min : 1.2016201 1.1714113 1.0876852
T   max/avg/min : 324.4609 301.52892 293.70615
P   max/avg/min : 101324.91 101316.16 101307.41
Prg max/avg/min : 101325 101324.78 101323.34
U   max/avg/min : 0.016785405 0.0089740728 -0.0062310018
Prg max-min : 1.6638914
 
sngrad(rho) :0.25581528 0.15722042 0.0085244858
 
Iteration Number = 27

DILUPBiCG:  Solving for Ux, Initial residual = 0.081857522, Final residual = 1.2191733e-05, No Iterations 2
DILUPBiCG:  Solving for Uy, Initial residual = 0.0023331596, Final residual = 3.906983e-07, No Iterations 2
DILUPBiCG:  Solving for Uz, Initial residual = 0.076843275, Final residual = 3.1322991e-06, No Iterations 2
DILUPBiCG:  Solving for h, Initial residual = 0.015748843, Final residual = 7.1103888e-06, No Iterations 4
GAMG:  Solving for p_rgh, Initial residual = 0.0096163033, Final residual = 4.1283983e-06, No Iterations 4
time step continuity errors : sum local = 7.8726314e-05, global = 1.3642001e-05, cumulative = 0.00033767458
ExecutionTime = 3.3 s  ClockTime = 3 s
Inflow      : 2.8087145e-07 [kg/s]
Outflow     : 2.9224888e-07 [kg/s]
EnergyInflow  : 0.082986898 [W]
EnergyOutflow : 0.087610004 [W]
EnergyBalance : 0.004623106 [W]
rho max/avg/min : 1.2016224 1.1704591 1.0861218
T   max/avg/min : 324.93339 301.78345 293.70559
P   max/avg/min : 101324.91 101316.16 101307.41
Prg max/avg/min : 101325 101324.77 101323.32
U   max/avg/min : 0.019197589 0.010111206 -0.0071391569
Prg max-min : 1.6864785
 
sngrad(rho) :0.25120978 0.15917193 0.010906138
 
Iteration Number = 28

DILUPBiCG:  Solving for Ux, Initial residual = 0.076216334, Final residual = 1.2834308e-05, No Iterations 2
DILUPBiCG:  Solving for Uy, Initial residual = 0.0026379882, Final residual = 1.6197126e-06, No Iterations 2
DILUPBiCG:  Solving for Uz, Initial residual = 0.070921249, Final residual = 3.3517131e-06, No Iterations 2
DILUPBiCG:  Solving for h, Initial residual = 0.015314958, Final residual = 6.93167e-06, No Iterations 4
GAMG:  Solving for p_rgh, Initial residual = 0.0093236947, Final residual = 6.246783e-06, No Iterations 4
time step continuity errors : sum local = 0.00012382188, global = 5.353206e-05, cumulative = 0.00039120664
ExecutionTime = 3.33 s  ClockTime = 3 s
Inflow      : 3.8927562e-07 [kg/s]
Outflow     : 4.3392133e-07 [kg/s]
EnergyInflow  : 0.11501623 [W]
EnergyOutflow : 0.1298406 [W]
EnergyBalance : 0.01482437 [W]
rho max/avg/min : 1.2016253 1.1695132 1.0845515
T   max/avg/min : 325.4088 302.03688 293.70488
P   max/avg/min : 101324.91 101316.16 101307.42
Prg max/avg/min : 101325 101324.77 101323.3
U   max/avg/min : 0.021782496 0.011305018 -0.0080267217
Prg max-min : 1.7091284
 
sngrad(rho) :0.24728196 0.16094086 0.013036521
 
Iteration Number = 29

DILUPBiCG:  Solving for Ux, Initial residual = 0.077155019, Final residual = 1.3272038e-05, No Iterations 2
DILUPBiCG:  Solving for Uy, Initial residual = 0.0031370249, Final residual = 9.0187597e-07, No Iterations 2
DILUPBiCG:  Solving for Uz, Initial residual = 0.066372754, Final residual = 3.3041299e-06, No Iterations 2
DILUPBiCG:  Solving for h, Initial residual = 0.014895846, Final residual = 7.1295839e-06, No Iterations 4
GAMG:  Solving for p_rgh, Initial residual = 0.010325658, Final residual = 3.7062257e-06, No Iterations 4
time step continuity errors : sum local = 7.6116044e-05, global = 9.9734878e-06, cumulative = 0.00040118013
ExecutionTime = 3.36 s  ClockTime = 3 s
Inflow      : 5.827148e-07 [kg/s]
Outflow     : 5.9103268e-07 [kg/s]
EnergyInflow  : 0.1721702 [W]
EnergyOutflow : 0.17671317 [W]
EnergyBalance : 0.0045429775 [W]
rho max/avg/min : 1.2016268 1.1685736 1.0829647
T   max/avg/min : 325.8856 302.28918 293.70451
P   max/avg/min : 101324.91 101316.16 101307.42
Prg max/avg/min : 101325 101324.76 101323.27
U   max/avg/min : 0.024593836 0.012584277 -0.0089034735
Prg max-min : 1.7316742
 
sngrad(rho) :0.24394821 0.15956861 0.016818008
 
Iteration Number = 30

DILUPBiCG:  Solving for Ux, Initial residual = 0.068246263, Final residual = 1.3291303e-05, No Iterations 2
DILUPBiCG:  Solving for Uy, Initial residual = 0.0035022198, Final residual = 1.8043094e-08, No Iterations 3
DILUPBiCG:  Solving for Uz, Initial residual = 0.061719145, Final residual = 3.6030732e-06, No Iterations 2
DILUPBiCG:  Solving for h, Initial residual = 0.014481325, Final residual = 7.573655e-06, No Iterations 4
GAMG:  Solving for G, Initial residual = 0.1546906, Final residual = 0.10186123, No Iterations 1000
GAMG:  Solving for p_rgh, Initial residual = 0.0091738718, Final residual = 5.6373222e-06, No Iterations 4
time step continuity errors : sum local = 0.00012033084, global = 5.3133084e-05, cumulative = 0.00045431322
ExecutionTime = 4.2 s  ClockTime = 4 s
Inflow      : 7.4497805e-07 [kg/s]
Outflow     : 7.8929101e-07 [kg/s]
EnergyInflow  : 0.22011285 [W]
EnergyOutflow : 0.23582702 [W]
EnergyBalance : 0.015714169 [W]
rho max/avg/min : 1.2016285 1.1676417 1.0813819
T   max/avg/min : 326.36258 302.54002 293.7041
P   max/avg/min : 101324.91 101316.16 101307.42
Prg max/avg/min : 101325.01 101324.75 101323.25
U   max/avg/min : 0.027587628 0.013916697 -0.0097128216
Prg max-min : 1.7542733
 
sngrad(rho) :0.25271596 0.15996569 0.019408643
 
Iteration Number = 31

DILUPBiCG:  Solving for Ux, Initial residual = 0.063808838, Final residual = 1.2451865e-05, No Iterations 2
DILUPBiCG:  Solving for Uy, Initial residual = 0.0041121506, Final residual = 3.6659166e-06, No Iterations 2
DILUPBiCG:  Solving for Uz, Initial residual = 0.057828179, Final residual = 3.5126412e-06, No Iterations 2
DILUPBiCG:  Solving for h, Initial residual = 0.014943151, Final residual = 9.7908375e-06, No Iterations 4
GAMG:  Solving for p_rgh, Initial residual = 0.0086853004, Final residual = 3.0553248e-06, No Iterations 4
time step continuity errors : sum local = 6.7432277e-05, global = -2.6269529e-06, cumulative = 0.00045168626
ExecutionTime = 4.23 s  ClockTime = 4 s
Inflow      : 1.0334725e-06 [kg/s]
Outflow     : 1.0312816e-06 [kg/s]
EnergyInflow  : 0.30535205 [W]
EnergyOutflow : 0.30794682 [W]
EnergyBalance : 0.0025947691 [W]
rho max/avg/min : 1.2016297 1.1667965 1.0812078
T   max/avg/min : 326.41513 302.7659 293.7038
P   max/avg/min : 101324.91 101316.16 101307.42
Prg max/avg/min : 101325.01 101324.75 101323.25
U   max/avg/min : 0.030764247 0.015334639 -0.010498176
Prg max-min : 1.7566194
 
sngrad(rho) :0.28470095 0.14997041 0.021510802
 
Iteration Number = 32

DILUPBiCG:  Solving for Ux, Initial residual = 0.054335283, Final residual = 1.1927734e-05, No Iterations 2
DILUPBiCG:  Solving for Uy, Initial residual = 0.0041684727, Final residual = 2.5186315e-06, No Iterations 2
DILUPBiCG:  Solving for Uz, Initial residual = 0.054333034, Final residual = 3.7092919e-06, No Iterations 2
DILUPBiCG:  Solving for h, Initial residual = 0.012043317, Final residual = 1.9802625e-06, No Iterations 5
GAMG:  Solving for p_rgh, Initial residual = 0.0080858446, Final residual = 4.7145227e-06, No Iterations 4
time step continuity errors : sum local = 0.00010584426, global = 5.1661033e-05, cumulative = 0.0005033473
ExecutionTime = 4.27 s  ClockTime = 4 s
Inflow      : 1.2656601e-06 [kg/s]
Outflow     : 1.3087454e-06 [kg/s]
EnergyInflow  : 0.37395472 [W]
EnergyOutflow : 0.39064066 [W]
EnergyBalance : 0.016685942 [W]
rho max/avg/min : 1.201631 1.1659579 1.0804134
T   max/avg/min : 326.65514 302.99079 293.70349
P   max/avg/min : 101324.91 101316.16 101307.42
Prg max/avg/min : 101325.01 101324.74 101323.24
U   max/avg/min : 0.034105996 0.01679806 -0.011201918
Prg max-min : 1.7679419
 
sngrad(rho) :0.31548657 0.15090633 0.023993528
 
Iteration Number = 33

DILUPBiCG:  Solving for Ux, Initial residual = 0.053078713, Final residual = 1.1692482e-05, No Iterations 2
DILUPBiCG:  Solving for Uy, Initial residual = 0.004228599, Final residual = 1.5898375e-06, No Iterations 2
DILUPBiCG:  Solving for Uz, Initial residual = 0.050899636, Final residual = 3.5439137e-06, No Iterations 2
DILUPBiCG:  Solving for h, Initial residual = 0.01175184, Final residual = 2.2443412e-06, No Iterations 5
GAMG:  Solving for p_rgh, Initial residual = 0.0093969791, Final residual = 4.5149697e-06, No Iterations 4
time step continuity errors : sum local = 0.00010156915, global = -8.9258877e-06, cumulative = 0.00049442141
ExecutionTime = 4.3 s  ClockTime = 4 s
Inflow      : 1.6345038e-06 [kg/s]
Outflow     : 1.6270596e-06 [kg/s]
EnergyInflow  : 0.4829341 [W]
EnergyOutflow : 0.48553786 [W]
EnergyBalance : 0.0026037694 [W]
rho max/avg/min : 1.2016325 1.1651297 1.079449
T   max/avg/min : 326.94698 303.2135 293.70311
P   max/avg/min : 101324.91 101316.16 101307.42
Prg max/avg/min : 101325.01 101324.73 101323.23
U   max/avg/min : 0.03763864 0.018336638 -0.012144334
Prg max-min : 1.7814388
 
sngrad(rho) :0.28151413 0.14664346 0.029478807
 
Iteration Number = 34

DILUPBiCG:  Solving for Ux, Initial residual = 0.046064893, Final residual = 1.1715121e-05, No Iterations 2
DILUPBiCG:  Solving for Uy, Initial residual = 0.0044422694, Final residual = 1.7522198e-06, No Iterations 2
DILUPBiCG:  Solving for Uz, Initial residual = 0.04831227, Final residual = 3.5579639e-06, No Iterations 2
DILUPBiCG:  Solving for h, Initial residual = 0.011453893, Final residual = 2.1606082e-06, No Iterations 5
GAMG:  Solving for p_rgh, Initial residual = 0.0083525721, Final residual = 4.6692356e-06, No Iterations 4
time step continuity errors : sum local = 0.00010392749, global = 4.8538984e-05, cumulative = 0.00054296039
ExecutionTime = 4.33 s  ClockTime = 4 s
Inflow      : 1.9220335e-06 [kg/s]
Outflow     : 1.962515e-06 [kg/s]
EnergyInflow  : 0.56788824 [W]
EnergyOutflow : 0.58560675 [W]
EnergyBalance : 0.017718506 [W]
rho max/avg/min : 1.2016347 1.1643136 1.0784055
T   max/avg/min : 327.26188 303.43353 293.70258
P   max/avg/min : 101324.91 101316.17 101307.42
Prg max/avg/min : 101325.01 101324.73 101323.21
U   max/avg/min : 0.041336271 0.019909153 -0.013225473
Prg max-min : 1.7964722
 
sngrad(rho) :0.31617429 0.14555931 0.022443142
 
Iteration Number = 35

DILUPBiCG:  Solving for Ux, Initial residual = 0.044880168, Final residual = 1.0959665e-05, No Iterations 2
DILUPBiCG:  Solving for Uy, Initial residual = 0.005291254, Final residual = 2.8607398e-06, No Iterations 2
DILUPBiCG:  Solving for Uz, Initial residual = 0.045221538, Final residual = 3.3875397e-06, No Iterations 2
DILUPBiCG:  Solving for h, Initial residual = 0.011160724, Final residual = 2.178963e-06, No Iterations 5
GAMG:  Solving for p_rgh, Initial residual = 0.0077387817, Final residual = 3.2209369e-06, No Iterations 4
time step continuity errors : sum local = 7.150971e-05, global = -1.6207825e-05, cumulative = 0.00052675257
ExecutionTime = 4.36 s  ClockTime = 4 s
Inflow      : 2.3644919e-06 [kg/s]
Outflow     : 2.3509746e-06 [kg/s]
EnergyInflow  : 0.69861799 [W]
EnergyOutflow : 0.70145019 [W]
EnergyBalance : 0.0028321985 [W]
rho max/avg/min : 1.2016397 1.1635098 1.077302
T   max/avg/min : 327.5891 303.65083 293.70134
P   max/avg/min : 101324.91 101316.17 101307.42
Prg max/avg/min : 101325.01 101324.72 101323.2
U   max/avg/min : 0.045191046 0.021550869 -0.014299787
Prg max-min : 1.8123625
 
sngrad(rho) :0.34210712 0.14495648 0.021894767
 
Iteration Number = 36

DILUPBiCG:  Solving for Ux, Initial residual = 0.039739475, Final residual = 1.0476718e-05, No Iterations 2
DILUPBiCG:  Solving for Uy, Initial residual = 0.0054154475, Final residual = 2.1908399e-06, No Iterations 2
DILUPBiCG:  Solving for Uz, Initial residual = 0.043357023, Final residual = 3.2763808e-06, No Iterations 2
DILUPBiCG:  Solving for h, Initial residual = 0.010875329, Final residual = 2.3693498e-06, No Iterations 5
GAMG:  Solving for p_rgh, Initial residual = 0.0076314512, Final residual = 5.7855439e-06, No Iterations 4
time step continuity errors : sum local = 0.00012667486, global = 6.9006131e-05, cumulative = 0.0005957587
ExecutionTime = 4.39 s  ClockTime = 4 s
Inflow      : 2.7278736e-06 [kg/s]
Outflow     : 2.7854247e-06 [kg/s]
EnergyInflow  : 0.80598354 [W]
EnergyOutflow : 0.83100878 [W]
EnergyBalance : 0.02502524 [W]
rho max/avg/min : 1.2016457 1.1627192 1.0761668
T   max/avg/min : 327.92301 303.86514 293.69989
P   max/avg/min : 101324.91 101316.17 101307.42
Prg max/avg/min : 101325.01 101324.72 101323.18
U   max/avg/min : 0.049183405 0.023231567 -0.015233393
Prg max-min : 1.8285654
 
sngrad(rho) :0.36781618 0.14440845 0.021701136
 
Iteration Number = 37

DILUPBiCG:  Solving for Ux, Initial residual = 0.038257926, Final residual = 9.6080501e-06, No Iterations 2
DILUPBiCG:  Solving for Uy, Initial residual = 0.0057757429, Final residual = 4.5472547e-06, No Iterations 2
DILUPBiCG:  Solving for Uz, Initial residual = 0.040619412, Final residual = 3.1172816e-06, No Iterations 2
DILUPBiCG:  Solving for h, Initial residual = 0.01059673, Final residual = 2.7583523e-06, No Iterations 5
GAMG:  Solving for p_rgh, Initial residual = 0.0078216608, Final residual = 2.9034797e-06, No Iterations 4
time step continuity errors : sum local = 6.3203134e-05, global = -7.1899371e-06, cumulative = 0.00058856876
ExecutionTime = 4.42 s  ClockTime = 4 s
Inflow      : 3.2825147e-06 [kg/s]
Outflow     : 3.2765183e-06 [kg/s]
EnergyInflow  : 0.96985901 [W]
EnergyOutflow : 0.97744604 [W]
EnergyBalance : 0.00758703 [W]
rho max/avg/min : 1.2016468 1.1619419 1.0750099
T   max/avg/min : 328.26011 304.07641 293.69961
P   max/avg/min : 101324.91 101316.17 101307.42
Prg max/avg/min : 101325.01 101324.71 101323.17
U   max/avg/min : 0.053315221 0.024972465 -0.016145815
Prg max-min : 1.8450481
 
sngrad(rho) :0.39476213 0.1439285 0.02140041
 
Iteration Number = 38

DILUPBiCG:  Solving for Ux, Initial residual = 0.034919816, Final residual = 9.5637126e-06, No Iterations 2
DILUPBiCG:  Solving for Uy, Initial residual = 0.0066051253, Final residual = 8.2062642e-08, No Iterations 3
DILUPBiCG:  Solving for Uz, Initial residual = 0.039534303, Final residual = 3.0040881e-06, No Iterations 2
DILUPBiCG:  Solving for h, Initial residual = 0.01033302, Final residual = 3.6683559e-06, No Iterations 5
GAMG:  Solving for p_rgh, Initial residual = 0.010579363, Final residual = 5.9039192e-06, No Iterations 4
time step continuity errors : sum local = 0.00012665732, global = 8.206008e-05, cumulative = 0.00067062884
ExecutionTime = 4.45 s  ClockTime = 4 s
Inflow      : 3.7472419e-06 [kg/s]
Outflow     : 3.8156799e-06 [kg/s]
EnergyInflow  : 1.1071683 [W]
EnergyOutflow : 1.138277 [W]
EnergyBalance : 0.031108681 [W]
rho max/avg/min : 1.2016467 1.1611786 1.0738376
T   max/avg/min : 328.59933 304.28448 293.69923
P   max/avg/min : 101324.91 101316.17 101307.43
Prg max/avg/min : 101325.01 101324.71 101323.15
U   max/avg/min : 0.057568933 0.026745216 -0.016944822
Prg max-min : 1.8608223
 
sngrad(rho) :0.31699655 0.1374536 0.021860564
 
Iteration Number = 39

DILUPBiCG:  Solving for Ux, Initial residual = 0.031804764, Final residual = 9.7391472e-06, No Iterations 2
DILUPBiCG:  Solving for Uy, Initial residual = 0.006737327, Final residual = 5.0583651e-06, No Iterations 2
DILUPBiCG:  Solving for Uz, Initial residual = 0.036952283, Final residual = 2.8078905e-06, No Iterations 2
DILUPBiCG:  Solving for h, Initial residual = 0.010066934, Final residual = 4.503847e-06, No Iterations 5
GAMG:  Solving for p_rgh, Initial residual = 0.010251244, Final residual = 3.4929053e-06, No Iterations 4
time step continuity errors : sum local = 7.4591451e-05, global = 8.1993424e-07, cumulative = 0.00067144878
ExecutionTime = 4.48 s  ClockTime = 4 s
Inflow      : 4.4175868e-06 [kg/s]
Outflow     : 4.4182706e-06 [kg/s]
EnergyInflow  : 1.3052299 [W]
EnergyOutflow : 1.3180145 [W]
EnergyBalance : 0.012784545 [W]
rho max/avg/min : 1.2016464 1.1604297 1.0726542
T   max/avg/min : 328.96185 304.48918 293.69886
P   max/avg/min : 101324.91 101316.17 101307.43
Prg max/avg/min : 101325.01 101324.7 101323.13
U   max/avg/min : 0.06194345 0.028572851 -0.017623523
Prg max-min : 1.877684
 
sngrad(rho) :0.35023357 0.13563637 0.013390877
 
Iteration Number = 40

DILUPBiCG:  Solving for Ux, Initial residual = 0.02977127, Final residual = 2.0552153e-05, No Iterations 2
DILUPBiCG:  Solving for Uy, Initial residual = 0.0066764445, Final residual = 2.2230088e-06, No Iterations 2
DILUPBiCG:  Solving for Uz, Initial residual = 0.036423366, Final residual = 2.8272429e-06, No Iterations 2
DILUPBiCG:  Solving for h, Initial residual = 0.0097898311, Final residual = 6.2144332e-06, No Iterations 5
GAMG:  Solving for G, Initial residual = 0.15476461, Final residual = 0.093736929, No Iterations 1000
GAMG:  Solving for p_rgh, Initial residual = 0.009651343, Final residual = 5.1675915e-06, No Iterations 4
time step continuity errors : sum local = 0.00010740672, global = 7.6069289e-05, cumulative = 0.00074751806
ExecutionTime = 5.3 s  ClockTime = 5 s
Inflow      : 5.0063345e-06 [kg/s]
Outflow     : 5.0697763e-06 [kg/s]
EnergyInflow  : 1.4791826 [W]
EnergyOutflow : 1.5123473 [W]
EnergyBalance : 0.033164686 [W]
rho max/avg/min : 1.2016459 1.1596963 1.0714631
T   max/avg/min : 329.32754 304.69026 293.69833
P   max/avg/min : 101324.91 101316.17 101307.43
Prg max/avg/min : 101325.01 101324.69 101323.12
U   max/avg/min : 0.066422947 0.03042787 -0.018169308
Prg max-min : 1.8948118
 
sngrad(rho) :0.37130412 0.13422262 0.012465255
 
Iteration Number = 41

DILUPBiCG:  Solving for Ux, Initial residual = 0.026849484, Final residual = 2.0261831e-07, No Iterations 3
DILUPBiCG:  Solving for Uy, Initial residual = 0.0062861481, Final residual = 1.0447773e-07, No Iterations 3
DILUPBiCG:  Solving for Uz, Initial residual = 0.034161577, Final residual = 2.6448385e-06, No Iterations 2
DILUPBiCG:  Solving for h, Initial residual = 0.0099639423, Final residual = 5.1262284e-06, No Iterations 6
GAMG:  Solving for p_rgh, Initial residual = 0.010056871, Final residual = 4.8295735e-06, No Iterations 4
time step continuity errors : sum local = 9.7752121e-05, global = 2.9759022e-06, cumulative = 0.00075049397
ExecutionTime = 5.34 s  ClockTime = 5 s
Inflow      : 5.7818783e-06 [kg/s]
Outflow     : 5.7843602e-06 [kg/s]
EnergyInflow  : 1.7083265 [W]
EnergyOutflow : 1.7254826 [W]
EnergyBalance : 0.017156167 [W]
rho max/avg/min : 1.2016456 1.1590314 1.0712406
T   max/avg/min : 329.39594 304.87168 293.69794
P   max/avg/min : 101324.91 101316.17 101307.43
Prg max/avg/min : 101325.01 101324.69 101323.11
U   max/avg/min : 0.071000141 0.032329118 -0.018640596
Prg max-min : 1.8975953
 
sngrad(rho) :0.38976661 0.12579098 0.01143146
 
Iteration Number = 42

DILUPBiCG:  Solving for Ux, Initial residual = 0.026587442, Final residual = 1.5654562e-05, No Iterations 2
DILUPBiCG:  Solving for Uy, Initial residual = 0.0067010737, Final residual = 2.4138486e-06, No Iterations 2
DILUPBiCG:  Solving for Uz, Initial residual = 0.033955421, Final residual = 2.7702145e-06, No Iterations 2
DILUPBiCG:  Solving for h, Initial residual = 0.0083161997, Final residual = 3.8152136e-06, No Iterations 6
GAMG:  Solving for p_rgh, Initial residual = 0.011263985, Final residual = 4.5216875e-06, No Iterations 4
time step continuity errors : sum local = 8.8225439e-05, global = 5.0611602e-05, cumulative = 0.00080110557
ExecutionTime = 5.37 s  ClockTime = 5 s
Inflow      : 6.5126378e-06 [kg/s]
Outflow     : 6.5548478e-06 [kg/s]
EnergyInflow  : 1.9242383 [W]
EnergyOutflow : 1.9553095 [W]
EnergyBalance : 0.03107121 [W]
rho max/avg/min : 1.2016456 1.1583815 1.0705769
T   max/avg/min : 329.60017 305.04968 293.69759
P   max/avg/min : 101324.91 101316.17 101307.43
Prg max/avg/min : 101325.01 101324.68 101323.11
U   max/avg/min : 0.075662645 0.034257508 -0.019040989
Prg max-min : 1.9066359
 
sngrad(rho) :0.40967371 0.12495752 0.010826418
 
Iteration Number = 43

DILUPBiCG:  Solving for Ux, Initial residual = 0.023792495, Final residual = 1.2353822e-05, No Iterations 2
DILUPBiCG:  Solving for Uy, Initial residual = 0.007058222, Final residual = 9.1262707e-08, No Iterations 3
DILUPBiCG:  Solving for Uz, Initial residual = 0.032341391, Final residual = 2.6279924e-06, No Iterations 2
DILUPBiCG:  Solving for h, Initial residual = 0.0080940815, Final residual = 2.9397582e-06, No Iterations 6
GAMG:  Solving for p_rgh, Initial residual = 0.012827275, Final residual = 7.4141056e-06, No Iterations 4
time step continuity errors : sum local = 0.0001400269, global = -1.8851797e-05, cumulative = 0.00078225377
ExecutionTime = 5.4 s  ClockTime = 5 s
Inflow      : 7.3954003e-06 [kg/s]
Outflow     : 7.3796779e-06 [kg/s]
EnergyInflow  : 2.1850612 [W]
EnergyOutflow : 2.2013663 [W]
EnergyBalance : 0.016305079 [W]
rho max/avg/min : 1.2016456 1.1577493 1.0697848
T   max/avg/min : 329.8442 305.22351 293.69697
P   max/avg/min : 101324.91 101316.17 101307.43
Prg max/avg/min : 101325.01 101324.68 101323.09
U   max/avg/min : 0.080398077 0.036218285 -0.01934915
Prg max-min : 1.9174655
 
sngrad(rho) :0.43102427 0.12392996 0.0094023602
 
Iteration Number = 44

DILUPBiCG:  Solving for Ux, Initial residual = 0.024897447, Final residual = 1.2643263e-05, No Iterations 2
DILUPBiCG:  Solving for Uy, Initial residual = 0.0077625019, Final residual = 4.9274777e-07, No Iterations 3
DILUPBiCG:  Solving for Uz, Initial residual = 0.031959684, Final residual = 2.8091421e-06, No Iterations 2
DILUPBiCG:  Solving for h, Initial residual = 0.0078836006, Final residual = 4.5183356e-06, No Iterations 6
GAMG:  Solving for p_rgh, Initial residual = 0.017666665, Final residual = 5.8484809e-06, No Iterations 4
time step continuity errors : sum local = 0.00010685759, global = -2.2793382e-05, cumulative = 0.00075946039
ExecutionTime = 5.44 s  ClockTime = 5 s
Inflow      : 8.2874491e-06 [kg/s]
Outflow     : 8.2684394e-06 [kg/s]
EnergyInflow  : 2.4486279 [W]
EnergyOutflow : 2.4665639 [W]
EnergyBalance : 0.01793592 [W]
rho max/avg/min : 1.2016456 1.1571347 1.0689302
T   max/avg/min : 330.10791 305.39308 293.69663
P   max/avg/min : 101324.91 101316.17 101307.43
Prg max/avg/min : 101325.01 101324.67 101323.08
U   max/avg/min : 0.085199998 0.038209084 -0.019531945
Prg max-min : 1.9275212
 
sngrad(rho) :0.27645839 0.1163152 0.010226432
 
Iteration Number = 45

DILUPBiCG:  Solving for Ux, Initial residual = 0.022674761, Final residual = 1.2751135e-05, No Iterations 2
DILUPBiCG:  Solving for Uy, Initial residual = 0.0085111911, Final residual = 4.1281621e-06, No Iterations 2
DILUPBiCG:  Solving for Uz, Initial residual = 0.031008826, Final residual = 2.8049416e-06, No Iterations 2
DILUPBiCG:  Solving for h, Initial residual = 0.0076694898, Final residual = 3.4715298e-06, No Iterations 6
GAMG:  Solving for p_rgh, Initial residual = 0.018972472, Final residual = 8.6653506e-06, No Iterations 4
time step continuity errors : sum local = 0.00015346112, global = -2.5654218e-05, cumulative = 0.00073380617
ExecutionTime = 5.47 s  ClockTime = 5 s
Inflow      : 9.2493782e-06 [kg/s]
Outflow     : 9.2279826e-06 [kg/s]
EnergyInflow  : 2.7328416 [W]
EnergyOutflow : 2.7528754 [W]
EnergyBalance : 0.020033803 [W]
rho max/avg/min : 1.2016456 1.156539 1.0680376
T   max/avg/min : 330.38379 305.55808 293.69618
P   max/avg/min : 101324.91 101316.17 101307.43
Prg max/avg/min : 101325.01 101324.67 101323.07
U   max/avg/min : 0.090060585 0.040226667 -0.019512011
Prg max-min : 1.939703
 
sngrad(rho) :0.30452373 0.11408471 0.0014378197
 
Iteration Number = 46

DILUPBiCG:  Solving for Ux, Initial residual = 0.022817884, Final residual = 1.2883084e-05, No Iterations 2
DILUPBiCG:  Solving for Uy, Initial residual = 0.008926104, Final residual = 3.1259959e-06, No Iterations 2
DILUPBiCG:  Solving for Uz, Initial residual = 0.030428022, Final residual = 2.9995465e-06, No Iterations 2
DILUPBiCG:  Solving for h, Initial residual = 0.0074372552, Final residual = 3.4116546e-06, No Iterations 6
GAMG:  Solving for p_rgh, Initial residual = 0.017710845, Final residual = 1.0064004e-05, No Iterations 4
time step continuity errors : sum local = 0.00017367214, global = -2.358087e-05, cumulative = 0.0007102253
ExecutionTime = 5.51 s  ClockTime = 5 s
Inflow      : 1.0268041e-05 [kg/s]
Outflow     : 1.0248374e-05 [kg/s]
EnergyInflow  : 3.0338179 [W]
EnergyOutflow : 3.0573289 [W]
EnergyBalance : 0.023510981 [W]
rho max/avg/min : 1.2016456 1.1559623 1.0671192
T   max/avg/min : 330.66814 305.71843 293.6959
P   max/avg/min : 101324.91 101316.17 101307.43
Prg max/avg/min : 101325.01 101324.66 101323.06
U   max/avg/min : 0.09497084 0.042272727 -0.019438123
Prg max-min : 1.9527423
 
sngrad(rho) :0.31819548 0.11211052 1.7854316e-05
 
Iteration Number = 47

DILUPBiCG:  Solving for Ux, Initial residual = 0.022001051, Final residual = 1.297704e-05, No Iterations 2
DILUPBiCG:  Solving for Uy, Initial residual = 0.0090789139, Final residual = 3.0933873e-07, No Iterations 3
DILUPBiCG:  Solving for Uz, Initial residual = 0.029759915, Final residual = 3.1490519e-06, No Iterations 2
DILUPBiCG:  Solving for h, Initial residual = 0.0072112445, Final residual = 3.9725738e-06, No Iterations 6
GAMG:  Solving for p_rgh, Initial residual = 0.018666593, Final residual = 9.5903328e-06, No Iterations 4
time step continuity errors : sum local = 0.00016355437, global = -1.0974096e-05, cumulative = 0.00069925121
ExecutionTime = 5.54 s  ClockTime = 5 s
Inflow      : 1.1322965e-05 [kg/s]
Outflow     : 1.1313813e-05 [kg/s]
EnergyInflow  : 3.3455083 [W]
EnergyOutflow : 3.3752489 [W]
EnergyBalance : 0.029740612 [W]
rho max/avg/min : 1.2016456 1.1554051 1.0661822
T   max/avg/min : 330.95874 305.87405 293.6957
P   max/avg/min : 101324.91 101316.16 101307.43
Prg max/avg/min : 101325.01 101324.66 101323.04
U   max/avg/min : 0.099922974 0.04433862 -0.019190992
Prg max-min : 1.9658544
 
sngrad(rho) :0.32796715 0.11047077 -0.00071664947
 
Iteration Number = 48

DILUPBiCG:  Solving for Ux, Initial residual = 0.022157465, Final residual = 1.3082946e-05, No Iterations 2
DILUPBiCG:  Solving for Uy, Initial residual = 0.0096276495, Final residual = 7.4229725e-06, No Iterations 2
DILUPBiCG:  Solving for Uz, Initial residual = 0.02895713, Final residual = 3.2892258e-06, No Iterations 2
DILUPBiCG:  Solving for h, Initial residual = 0.0069878934, Final residual = 3.2483794e-06, No Iterations 7
GAMG:  Solving for p_rgh, Initial residual = 0.019796947, Final residual = 1.242937e-05, No Iterations 4
time step continuity errors : sum local = 0.00020741628, global = 6.7953335e-07, cumulative = 0.00069993074
ExecutionTime = 5.57 s  ClockTime = 5 s
Inflow      : 1.2503677e-05 [kg/s]
Outflow     : 1.2504243e-05 [kg/s]
EnergyInflow  : 3.6943638 [W]
EnergyOutflow : 3.7303114 [W]
EnergyBalance : 0.035947555 [W]
rho max/avg/min : 1.2016456 1.154868 1.0652323
T   max/avg/min : 331.25386 306.02471 293.69545
P   max/avg/min : 101324.91 101316.16 101307.43
Prg max/avg/min : 101325.01 101324.65 101323.03
U   max/avg/min : 0.10491924 0.046445567 -0.0188282
Prg max-min : 1.9791247
 
sngrad(rho) :0.33647787 0.10874187 -0.0013326618
 
Iteration Number = 49

DILUPBiCG:  Solving for Ux, Initial residual = 0.021552367, Final residual = 1.2292703e-05, No Iterations 3
DILUPBiCG:  Solving for Uy, Initial residual = 0.0099471669, Final residual = 3.5500119e-06, No Iterations 2
DILUPBiCG:  Solving for Uz, Initial residual = 0.02886399, Final residual = 3.571411e-06, No Iterations 2
DILUPBiCG:  Solving for h, Initial residual = 0.0067645861, Final residual = 5.9338623e-06, No Iterations 7
GAMG:  Solving for p_rgh, Initial residual = 0.020197167, Final residual = 9.6543458e-06, No Iterations 4
time step continuity errors : sum local = 0.00015627147, global = 2.1044573e-05, cumulative = 0.00072097531
ExecutionTime = 5.6 s  ClockTime = 5 s
Inflow      : 1.3702968e-05 [kg/s]
Outflow     : 1.3720519e-05 [kg/s]
EnergyInflow  : 4.0487092 [W]
EnergyOutflow : 4.09315 [W]
EnergyBalance : 0.044440861 [W]
rho max/avg/min : 1.2016456 1.154351 1.0642728
T   max/avg/min : 331.55251 306.17041 293.69525
P   max/avg/min : 101324.91 101316.16 101307.43
Prg max/avg/min : 101325 101324.65 101323.01
U   max/avg/min : 0.10995454 0.048574625 -0.018408561
Prg max-min : 1.9921084
 
sngrad(rho) :0.3497072 0.10702586 -0.0038219056
 
Iteration Number = 50

DILUPBiCG:  Solving for Ux, Initial residual = 0.021418498, Final residual = 1.6705964e-05, No Iterations 2
DILUPBiCG:  Solving for Uy, Initial residual = 0.01019452, Final residual = 3.6783473e-06, No Iterations 2
DILUPBiCG:  Solving for Uz, Initial residual = 0.027908161, Final residual = 3.6639208e-06, No Iterations 2
DILUPBiCG:  Solving for h, Initial residual = 0.0065487556, Final residual = 5.6853376e-06, No Iterations 6
GAMG:  Solving for G, Initial residual = 0.13523281, Final residual = 0.090545456, No Iterations 1000
GAMG:  Solving for p_rgh, Initial residual = 0.021534962, Final residual = 1.1312478e-05, No Iterations 4
time step continuity errors : sum local = 0.00017741664, global = 2.6975586e-05, cumulative = 0.0007479509
ExecutionTime = 6.45 s  ClockTime = 6 s
Inflow      : 1.494627e-05 [kg/s]
Outflow     : 1.4968768e-05 [kg/s]
EnergyInflow  : 4.4160578 [W]
EnergyOutflow : 4.4655427 [W]
EnergyBalance : 0.049484823 [W]
rho max/avg/min : 1.2016456 1.1538539 1.0633058
T   max/avg/min : 331.85404 306.31121 293.69503
P   max/avg/min : 101324.91 101316.16 101307.42
Prg max/avg/min : 101325 101324.64 101323
U   max/avg/min : 0.11501948 0.050714166 -0.017851344
Prg max-min : 2.0051718
 
sngrad(rho) :0.36282406 0.1051943 -0.0070449488
 
Iteration Number = 51

DILUPBiCG:  Solving for Ux, Initial residual = 0.021454966, Final residual = 6.5518246e-07, No Iterations 3
DILUPBiCG:  Solving for Uy, Initial residual = 0.010656937, Final residual = 3.8099732e-06, No Iterations 2
DILUPBiCG:  Solving for Uz, Initial residual = 0.027219534, Final residual = 3.8029991e-06, No Iterations 2
DILUPBiCG:  Solving for h, Initial residual = 0.0066719558, Final residual = 5.7845925e-06, No Iterations 7
GAMG:  Solving for p_rgh, Initial residual = 0.028478217, Final residual = 1.9217622e-05, No Iterations 3
time step continuity errors : sum local = 0.00029610195, global = 9.8712647e-05, cumulative = 0.00084666355
ExecutionTime = 6.49 s  ClockTime = 6 s
Inflow      : 1.6180187e-05 [kg/s]
Outflow     : 1.6262513e-05 [kg/s]
EnergyInflow  : 4.7806337 [W]
EnergyOutflow : 4.8515442 [W]
EnergyBalance : 0.070910499 [W]
rho max/avg/min : 1.2016456 1.1534185 1.0631641
T   max/avg/min : 331.89826 306.43415 293.69479
P   max/avg/min : 101324.91 101316.16 101307.42
Prg max/avg/min : 101325 101324.64 101322.99
U   max/avg/min : 0.12011586 0.052854764 -0.017081489
Prg max-min : 2.0065767
 
sngrad(rho) :0.16377118 0.09144853 -0.0068800973
 
Iteration Number = 52

DILUPBiCG:  Solving for Ux, Initial residual = 0.020598973, Final residual = 7.1473262e-07, No Iterations 3
DILUPBiCG:  Solving for Uy, Initial residual = 0.010589924, Final residual = 1.6840853e-07, No Iterations 3
DILUPBiCG:  Solving for Uz, Initial residual = 0.026117709, Final residual = 3.6813268e-06, No Iterations 2
DILUPBiCG:  Solving for h, Initial residual = 0.0055084842, Final residual = 3.306604e-06, No Iterations 7
GAMG:  Solving for p_rgh, Initial residual = 0.032489981, Final residual = 2.1978478e-05, No Iterations 3
time step continuity errors : sum local = 0.00033110259, global = 0.00012518106, cumulative = 0.00097184461
ExecutionTime = 6.52 s  ClockTime = 6 s
Inflow      : 1.7493929e-05 [kg/s]
Outflow     : 1.759833e-05 [kg/s]
EnergyInflow  : 5.1687948 [W]
EnergyOutflow : 5.250033 [W]
EnergyBalance : 0.081238179 [W]
rho max/avg/min : 1.2016457 1.1530013 1.0626459
T   max/avg/min : 332.0601 306.55272 293.69466
P   max/avg/min : 101324.91 101316.16 101307.42
Prg max/avg/min : 101325 101324.63 101322.98
U   max/avg/min : 0.12526336 0.055043175 -0.015959285
Prg max-min : 2.0173015
 
sngrad(rho) :0.18099632 0.088550159 -0.014604888
 
Iteration Number = 53

DILUPBiCG:  Solving for Ux, Initial residual = 0.0219242, Final residual = 9.9856909e-06, No Iterations 2
DILUPBiCG:  Solving for Uy, Initial residual = 0.010578124, Final residual = 4.3095733e-06, No Iterations 2
DILUPBiCG:  Solving for Uz, Initial residual = 0.026581152, Final residual = 4.0648284e-06, No Iterations 2
DILUPBiCG:  Solving for h, Initial residual = 0.0053291676, Final residual = 1.6979425e-06, No Iterations 8
GAMG:  Solving for p_rgh, Initial residual = 0.027434357, Final residual = 1.7328338e-05, No Iterations 3
time step continuity errors : sum local = 0.00025314349, global = 6.5921323e-05, cumulative = 0.0010377659
ExecutionTime = 6.56 s  ClockTime = 6 s
Inflow      : 1.8905661e-05 [kg/s]
Outflow     : 1.8960639e-05 [kg/s]
EnergyInflow  : 5.5859081 [W]
EnergyOutflow : 5.6563235 [W]
EnergyBalance : 0.070415435 [W]
rho max/avg/min : 1.2016457 1.1526038 1.0620184
T   max/avg/min : 332.2563 306.66638 293.69446
P   max/avg/min : 101324.91 101316.16 101307.42
Prg max/avg/min : 101325 101324.63 101322.97
U   max/avg/min : 0.13049385 0.057232836 -0.014674117
Prg max-min : 2.0275337
 
sngrad(rho) :0.18109899 0.08482212 -0.019994257
 
Iteration Number = 54

DILUPBiCG:  Solving for Ux, Initial residual = 0.019779341, Final residual = 1.1194762e-05, No Iterations 2
DILUPBiCG:  Solving for Uy, Initial residual = 0.0098116741, Final residual = 5.0812337e-06, No Iterations 2
DILUPBiCG:  Solving for Uz, Initial residual = 0.025125, Final residual = 3.7342883e-06, No Iterations 2
DILUPBiCG:  Solving for h, Initial residual = 0.0051585393, Final residual = 3.0020231e-06, No Iterations 8
GAMG:  Solving for p_rgh, Initial residual = 0.024501191, Final residual = 1.9997996e-05, No Iterations 3
time step continuity errors : sum local = 0.00027671665, global = 0.00011428816, cumulative = 0.0011520541
ExecutionTime = 6.59 s  ClockTime = 6 s
Inflow      : 2.0237426e-05 [kg/s]
Outflow     : 2.0332742e-05 [kg/s]
EnergyInflow  : 5.9793943 [W]
EnergyOutflow : 6.065408 [W]
EnergyBalance : 0.086013665 [W]
rho max/avg/min : 1.2016458 1.1522247 1.0613379
T   max/avg/min : 332.46933 306.77543 293.69425
P   max/avg/min : 101324.91 101316.16 101307.42
Prg max/avg/min : 101325 101324.62 101322.96
U   max/avg/min : 0.13582352 0.059443274 -0.01315113
Prg max-min : 2.0407695
 
sngrad(rho) :0.17751468 0.081590012 -0.020369663
 
Iteration Number = 55

DILUPBiCG:  Solving for Ux, Initial residual = 0.021648788, Final residual = 1.2166746e-05, No Iterations 2
DILUPBiCG:  Solving for Uy, Initial residual = 0.010433003, Final residual = 7.8769329e-06, No Iterations 2
DILUPBiCG:  Solving for Uz, Initial residual = 0.025195321, Final residual = 3.7837737e-06, No Iterations 2
DILUPBiCG:  Solving for h, Initial residual = 0.0049994886, Final residual = 1.9082843e-06, No Iterations 8
GAMG:  Solving for p_rgh, Initial residual = 0.024280372, Final residual = 1.6756683e-05, No Iterations 3
time step continuity errors : sum local = 0.00022247526, global = 8.6027883e-05, cumulative = 0.001238082
ExecutionTime = 6.62 s  ClockTime = 6 s
Inflow      : 2.1625922e-05 [kg/s]
Outflow     : 2.1697669e-05 [kg/s]
EnergyInflow  : 6.3896424 [W]
EnergyOutflow : 6.4722406 [W]
EnergyBalance : 0.082598163 [W]
rho max/avg/min : 1.2016459 1.151863 1.0606244
T   max/avg/min : 332.69297 306.88007 293.694
P   max/avg/min : 101324.91 101316.16 101307.41
Prg max/avg/min : 101325 101324.62 101322.95
U   max/avg/min : 0.14121718 0.061658531 -0.011792344
Prg max-min : 2.0532146
 
sngrad(rho) :0.17259089 0.078316648 -0.022521753
 
Iteration Number = 56

DILUPBiCG:  Solving for Ux, Initial residual = 0.019805419, Final residual = 1.1741892e-05, No Iterations 2
DILUPBiCG:  Solving for Uy, Initial residual = 0.010482239, Final residual = 3.9521483e-06, No Iterations 2
DILUPBiCG:  Solving for Uz, Initial residual = 0.024244508, Final residual = 3.5896981e-06, No Iterations 2
DILUPBiCG:  Solving for h, Initial residual = 0.004840936, Final residual = 2.0448275e-06, No Iterations 8
GAMG:  Solving for p_rgh, Initial residual = 0.023051225, Final residual = 1.1392743e-05, No Iterations 4
time step continuity errors : sum local = 0.00014630813, global = 2.4456416e-05, cumulative = 0.0012625384
ExecutionTime = 6.65 s  ClockTime = 6 s
Inflow      : 2.3139715e-05 [kg/s]
Outflow     : 2.3160111e-05 [kg/s]
EnergyInflow  : 6.836911 [W]
EnergyOutflow : 6.9077632 [W]
EnergyBalance : 0.070852224 [W]
rho max/avg/min : 1.2016459 1.1515173 1.0598884
T   max/avg/min : 332.924 306.98066 293.69374
P   max/avg/min : 101324.91 101316.15 101307.41
Prg max/avg/min : 101325 101324.61 101322.93
U   max/avg/min : 0.14669935 0.063936027 -0.010387439
Prg max-min : 2.069248
 
sngrad(rho) :0.16648942 0.075126855 -0.026033034
 
Iteration Number = 57

DILUPBiCG:  Solving for Ux, Initial residual = 0.021118084, Final residual = 1.2162347e-05, No Iterations 2
DILUPBiCG:  Solving for Uy, Initial residual = 0.012025232, Final residual = 2.6281124e-07, No Iterations 3
DILUPBiCG:  Solving for Uz, Initial residual = 0.025383148, Final residual = 3.9028502e-06, No Iterations 2
DILUPBiCG:  Solving for h, Initial residual = 0.0046848958, Final residual = 3.2799524e-06, No Iterations 8
GAMG:  Solving for p_rgh, Initial residual = 0.02325294, Final residual = 1.9342249e-05, No Iterations 3
time step continuity errors : sum local = 0.00023880903, global = -0.00013510076, cumulative = 0.0011274376
ExecutionTime = 6.69 s  ClockTime = 6 s
Inflow      : 2.467526e-05 [kg/s]
Outflow     : 2.4562586e-05 [kg/s]
EnergyInflow  : 7.2906065 [W]
EnergyOutflow : 7.3253362 [W]
EnergyBalance : 0.034729614 [W]
rho max/avg/min : 1.2016461 1.1511869 1.0591368
T   max/avg/min : 333.16023 307.07738 293.69342
P   max/avg/min : 101324.91 101316.15 101307.41
Prg max/avg/min : 101325 101324.61 101322.92
U   max/avg/min : 0.15225041 0.0662228 -0.0089570974
Prg max-min : 2.0818006
 
sngrad(rho) :0.16677999 0.072131402 -0.031344524
 
Iteration Number = 58

DILUPBiCG:  Solving for Ux, Initial residual = 0.02103829, Final residual = 1.4705223e-05, No Iterations 2
DILUPBiCG:  Solving for Uy, Initial residual = 0.011914791, Final residual = 8.4074466e-06, No Iterations 2
DILUPBiCG:  Solving for Uz, Initial residual = 0.023985826, Final residual = 3.5448715e-06, No Iterations 2
DILUPBiCG:  Solving for h, Initial residual = 0.0045276047, Final residual = 3.3495232e-06, No Iterations 7
GAMG:  Solving for p_rgh, Initial residual = 0.020424438, Final residual = 1.6815052e-05, No Iterations 4
time step continuity errors : sum local = 0.00019948674, global = -2.0206769e-05, cumulative = 0.0011072309
ExecutionTime = 6.72 s  ClockTime = 6 s
Inflow      : 2.5933477e-05 [kg/s]
Outflow     : 2.5916624e-05 [kg/s]
EnergyInflow  : 7.6623621 [W]
EnergyOutflow : 7.7283398 [W]
EnergyBalance : 0.065977655 [W]
rho max/avg/min : 1.2016462 1.1508702 1.0583724
T   max/avg/min : 333.40084 307.17059 293.6931
P   max/avg/min : 101324.91 101316.15 101307.41
Prg max/avg/min : 101325 101324.61 101322.91
U   max/avg/min : 0.1578391 0.068431494 -0.0074338266
Prg max-min : 2.0930732
 
sngrad(rho) :0.16581916 0.069189852 -0.036293253
 
Iteration Number = 59

DILUPBiCG:  Solving for Ux, Initial residual = 0.021999595, Final residual = 1.6993038e-05, No Iterations 2
DILUPBiCG:  Solving for Uy, Initial residual = 0.01307155, Final residual = 6.5665824e-06, No Iterations 2
DILUPBiCG:  Solving for Uz, Initial residual = 0.021802261, Final residual = 2.9364677e-06, No Iterations 2
DILUPBiCG:  Solving for h, Initial residual = 0.0043780253, Final residual = 1.0188479e-06, No Iterations 7
GAMG:  Solving for p_rgh, Initial residual = 0.017749123, Final residual = 1.6822981e-05, No Iterations 3
time step continuity errors : sum local = 0.00019368386, global = 0.00010019851, cumulative = 0.0012074294
ExecutionTime = 6.75 s  ClockTime = 7 s
Inflow      : 2.7125304e-05 [kg/s]
Outflow     : 2.7208869e-05 [kg/s]
EnergyInflow  : 8.0145019 [W]
EnergyOutflow : 8.1127896 [W]
EnergyBalance : 0.098287739 [W]
rho max/avg/min : 1.2016464 1.1505662 1.0575998
T   max/avg/min : 333.64441 307.26055 293.69276
P   max/avg/min : 101324.91 101316.15 101307.4
Prg max/avg/min : 101325 101324.6 101322.89
U   max/avg/min : 0.1634701 0.070631479 -0.0054526339
Prg max-min : 2.1082566
 
sngrad(rho) :0.16542589 0.066138682 -0.041118036
 
Iteration Number = 60

DILUPBiCG:  Solving for Ux, Initial residual = 0.022903817, Final residual = 2.1082954e-05, No Iterations 2
DILUPBiCG:  Solving for Uy, Initial residual = 0.0136563, Final residual = 5.9556116e-06, No Iterations 2
DILUPBiCG:  Solving for Uz, Initial residual = 0.022023703, Final residual = 3.1072442e-06, No Iterations 2
DILUPBiCG:  Solving for h, Initial residual = 0.0042258785, Final residual = 5.1926189e-07, No Iterations 7
GAMG:  Solving for G, Initial residual = 0.13288045, Final residual = 0.076431951, No Iterations 1000
GAMG:  Solving for p_rgh, Initial residual = 0.016577845, Final residual = 4.7099023e-06, No Iterations 4
time step continuity errors : sum local = 5.2911623e-05, global = -1.9770187e-05, cumulative = 0.0011876592
ExecutionTime = 7.57 s  ClockTime = 7 s
Inflow      : 2.8476937e-05 [kg/s]
Outflow     : 2.8460448e-05 [kg/s]
EnergyInflow  : 8.4138584 [W]
EnergyOutflow : 8.4849147 [W]
EnergyBalance : 0.071056382 [W]
rho max/avg/min : 1.2016466 1.150273 1.0568207
T   max/avg/min : 333.89036 307.34768 293.69241
P   max/avg/min : 101324.91 101316.15 101307.4
Prg max/avg/min : 101325 101324.6 101322.88
U   max/avg/min : 0.16914668 0.072841994 -0.0031127133
Prg max-min : 2.1221577
 
sngrad(rho) :0.16686076 0.063158815 -0.045320091
 
Iteration Number = 61

DILUPBiCG:  Solving for Ux, Initial residual = 0.024491103, Final residual = 2.1697213e-05, No Iterations 2
DILUPBiCG:  Solving for Uy, Initial residual = 0.014490104, Final residual = 9.8134657e-06, No Iterations 2
DILUPBiCG:  Solving for Uz, Initial residual = 0.021462766, Final residual = 3.0778422e-06, No Iterations 2
DILUPBiCG:  Solving for h, Initial residual = 0.0043207625, Final residual = 2.3522477e-06, No Iterations 6
GAMG:  Solving for p_rgh, Initial residual = 0.026047788, Final residual = 1.3463939e-05, No Iterations 4
time step continuity errors : sum local = 0.00014696394, global = -4.2807931e-05, cumulative = 0.0011448513
ExecutionTime = 7.6 s  ClockTime = 7 s
Inflow      : 2.963958e-05 [kg/s]
Outflow     : 2.9603878e-05 [kg/s]
EnergyInflow  : 8.7573754 [W]
EnergyOutflow : 8.8247399 [W]
EnergyBalance : 0.067364525 [W]
rho max/avg/min : 1.2016468 1.1500274 1.0567828
T   max/avg/min : 333.90232 307.4205 293.69204
P   max/avg/min : 101324.91 101316.15 101307.4
Prg max/avg/min : 101325 101324.6 101322.88
U   max/avg/min : 0.17484107 0.074996135 0
Prg max-min : 2.1224333
 
sngrad(rho) :0.12611909 0.052478735 -0.0492152
 
Iteration Number = 62

DILUPBiCG:  Solving for Ux, Initial residual = 0.02365761, Final residual = 1.2984402e-05, No Iterations 2
DILUPBiCG:  Solving for Uy, Initial residual = 0.014666058, Final residual = 6.7889883e-06, No Iterations 2
DILUPBiCG:  Solving for Uz, Initial residual = 0.019576624, Final residual = 2.7576123e-06, No Iterations 2
DILUPBiCG:  Solving for h, Initial residual = 0.0034637567, Final residual = 1.8342012e-06, No Iterations 6
GAMG:  Solving for p_rgh, Initial residual = 0.021192292, Final residual = 1.5619392e-05, No Iterations 3
time step continuity errors : sum local = 0.00016411726, global = -6.5266937e-05, cumulative = 0.0010795843
ExecutionTime = 7.63 s  ClockTime = 7 s
Inflow      : 3.0672109e-05 [kg/s]
Outflow     : 3.0617676e-05 [kg/s]
EnergyInflow  : 9.0624488 [W]
EnergyOutflow : 9.1258864 [W]
EnergyBalance : 0.063437531 [W]
rho max/avg/min : 1.2016472 1.1497896 1.0564085
T   max/avg/min : 334.02061 307.49138 293.69169
P   max/avg/min : 101324.91 101316.15 101307.4
Prg max/avg/min : 101325 101324.59 101322.87
U   max/avg/min : 0.18054216 0.077097092 0
Prg max-min : 2.1293258
 
sngrad(rho) :0.1231342 0.048401151 -0.051841438
 
Iteration Number = 63

DILUPBiCG:  Solving for Ux, Initial residual = 0.023822497, Final residual = 1.1966632e-05, No Iterations 2
DILUPBiCG:  Solving for Uy, Initial residual = 0.015172714, Final residual = 1.5124305e-05, No Iterations 2
DILUPBiCG:  Solving for Uz, Initial residual = 0.018746081, Final residual = 2.6865671e-06, No Iterations 2
DILUPBiCG:  Solving for h, Initial residual = 0.0033149001, Final residual = 6.3493002e-07, No Iterations 7
GAMG:  Solving for p_rgh, Initial residual = 0.010612776, Final residual = 3.5131627e-06, No Iterations 4
time step continuity errors : sum local = 3.5965261e-05, global = -1.2691221e-05, cumulative = 0.0010668931
ExecutionTime = 7.66 s  ClockTime = 7 s
Inflow      : 3.1415743e-05 [kg/s]
Outflow     : 3.1405158e-05 [kg/s]
EnergyInflow  : 9.2821645 [W]
EnergyOutflow : 9.3596726 [W]
EnergyBalance : 0.077508116 [W]
rho max/avg/min : 1.2016474 1.1495597 1.0559357
T   max/avg/min : 334.17017 307.56017 293.69132
P   max/avg/min : 101324.91 101316.15 101307.4
Prg max/avg/min : 101325 101324.59 101322.87
U   max/avg/min : 0.1862431 0.079067431 0
Prg max-min : 2.131851
 
sngrad(rho) :0.12003606 0.044250738 -0.053151303
 
Iteration Number = 64

DILUPBiCG:  Solving for Ux, Initial residual = 0.022882314, Final residual = 1.2178656e-05, No Iterations 2
DILUPBiCG:  Solving for Uy, Initial residual = 0.015665799, Final residual = 7.2213153e-06, No Iterations 2
DILUPBiCG:  Solving for Uz, Initial residual = 0.015517324, Final residual = 2.1736682e-06, No Iterations 2
DILUPBiCG:  Solving for h, Initial residual = 0.0031767803, Final residual = 7.8356977e-07, No Iterations 6
GAMG:  Solving for p_rgh, Initial residual = 0.0087512743, Final residual = 1.5929993e-06, No Iterations 5
time step continuity errors : sum local = 1.6071839e-05, global = 6.139107e-06, cumulative = 0.0010730322
ExecutionTime = 7.69 s  ClockTime = 7 s
Inflow      : 3.2117819e-05 [kg/s]
Outflow     : 3.2122939e-05 [kg/s]
EnergyInflow  : 9.4896014 [W]
EnergyOutflow : 9.5725037 [W]
EnergyBalance : 0.082902248 [W]
rho max/avg/min : 1.2016476 1.1493371 1.0554151
T   max/avg/min : 334.33503 307.627 293.691
P   max/avg/min : 101324.91 101316.15 101307.4
Prg max/avg/min : 101325 101324.59 101322.86
U   max/avg/min : 0.19196324 0.081003742 0
Prg max-min : 2.1435685
 
sngrad(rho) :0.11670234 0.041619939 -0.05372513
 
Iteration Number = 65

DILUPBiCG:  Solving for Ux, Initial residual = 0.022027309, Final residual = 1.3532043e-05, No Iterations 2
DILUPBiCG:  Solving for Uy, Initial residual = 0.015170052, Final residual = 1.0351516e-05, No Iterations 2
DILUPBiCG:  Solving for Uz, Initial residual = 0.016167718, Final residual = 2.2799199e-06, No Iterations 2
DILUPBiCG:  Solving for h, Initial residual = 0.0030401878, Final residual = 2.4962282e-06, No Iterations 5
GAMG:  Solving for p_rgh, Initial residual = 0.0079886121, Final residual = 5.1797615e-06, No Iterations 4
time step continuity errors : sum local = 5.2049903e-05, global = -2.2181925e-05, cumulative = 0.0010508503
ExecutionTime = 7.72 s  ClockTime = 8 s
Inflow      : 3.2768681e-05 [kg/s]
Outflow     : 3.2750181e-05 [kg/s]
[...]
GAMG:  Solving for p_rgh, Initial residual = 5.7303652e-06, Final residual = 1.9271672e-07, No Iterations 1
time step continuity errors : sum local = 1.5171817e-06, global = -7.8917192e-10, cumulative = 0.00046264084
ExecutionTime = 94.73 s  ClockTime = 95 s
Inflow      : 3.5558593e-05 [kg/s]
Outflow     : 3.5558593e-05 [kg/s]
EnergyInflow  : 10.50622 [W]
EnergyOutflow : 10.618936 [W]
EnergyBalance : 0.11271551 [W]
rho max/avg/min : 1.2016464 1.1524277 1.0463735
T   max/avg/min : 337.22397 306.90923 293.68635
P   max/avg/min : 101324.91 101316.16 101307.4
Prg max/avg/min : 101325 101324.61 101322.73
U   max/avg/min : 0.7181266 0.21662899 0
Prg max-min : 2.2718685
 
sngrad(rho) :-5.4729265e-05 -0.00016849856 -0.0010845567
 
Iteration Number = 852

DILUPBiCG:  Solving for Ux, Initial residual = 0.00037784585, Final residual = 1.6792264e-07, No Iterations 2
DILUPBiCG:  Solving for Uy, Initial residual = 0.012197185, Final residual = 6.1030699e-06, No Iterations 2
DILUPBiCG:  Solving for Uz, Initial residual = 3.2843664e-06, Final residual = 1.205847e-09, No Iterations 2
DILUPBiCG:  Solving for h, Initial residual = 4.6195243e-06, Final residual = 3.1570298e-09, No Iterations 5
GAMG:  Solving for p_rgh, Initial residual = 4.0873764e-06, Final residual = 1.4460619e-07, No Iterations 1
time step continuity errors : sum local = 1.1387401e-06, global = 1.3524259e-08, cumulative = 0.00046265436
ExecutionTime = 94.76 s  ClockTime = 95 s
Inflow      : 3.5558453e-05 [kg/s]
Outflow     : 3.5558464e-05 [kg/s]
EnergyInflow  : 10.506179 [W]
EnergyOutflow : 10.618898 [W]
EnergyBalance : 0.11271961 [W]
rho max/avg/min : 1.2016464 1.1524278 1.0463772
T   max/avg/min : 337.22278 306.90918 293.68635
P   max/avg/min : 101324.91 101316.16 101307.4
Prg max/avg/min : 101325 101324.61 101322.73
U   max/avg/min : 0.71813166 0.21662998 0
Prg max-min : 2.2718445
 
sngrad(rho) :-8.5909886e-05 -0.00016244854 -0.00059992911
 
Iteration Number = 853

DILUPBiCG:  Solving for Ux, Initial residual = 0.00024727996, Final residual = 4.8513005e-08, No Iterations 2
DILUPBiCG:  Solving for Uy, Initial residual = 0.011853024, Final residual = 1.8203607e-07, No Iterations 3
DILUPBiCG:  Solving for Uz, Initial residual = 3.2765912e-06, Final residual = 1.5123854e-09, No Iterations 2
DILUPBiCG:  Solving for h, Initial residual = 3.8730441e-06, Final residual = 8.0528696e-09, No Iterations 4
GAMG:  Solving for p_rgh, Initial residual = 1.8585164e-06, Final residual = 1.8177259e-07, No Iterations 1
time step continuity errors : sum local = 1.4314968e-06, global = 5.5629804e-08, cumulative = 0.00046270999
ExecutionTime = 94.79 s  ClockTime = 95 s
Inflow      : 3.5558318e-05 [kg/s]
Outflow     : 3.5558365e-05 [kg/s]
EnergyInflow  : 10.506139 [W]
EnergyOutflow : 10.61887 [W]
EnergyBalance : 0.11273091 [W]
rho max/avg/min : 1.2016464 1.152428 1.0463799
T   max/avg/min : 337.22191 306.90913 293.68635
P   max/avg/min : 101324.91 101316.16 101307.4
Prg max/avg/min : 101325 101324.61 101322.73
U   max/avg/min : 0.71813666 0.21663098 0
Prg max-min : 2.2717851
 
sngrad(rho) :-0.00010743816 -0.00016378483 -0.00046484513
 
Iteration Number = 854

DILUPBiCG:  Solving for Ux, Initial residual = 0.00015355498, Final residual = 2.7135786e-08, No Iterations 2
DILUPBiCG:  Solving for Uy, Initial residual = 0.011618233, Final residual = 5.0610346e-06, No Iterations 2
DILUPBiCG:  Solving for Uz, Initial residual = 3.2435755e-06, Final residual = 1.6215514e-09, No Iterations 2
DILUPBiCG:  Solving for h, Initial residual = 3.4218345e-06, Final residual = 6.9211077e-09, No Iterations 4
GAMG:  Solving for p_rgh, Initial residual = 2.1778359e-06, Final residual = 1.2608381e-07, No Iterations 1
time step continuity errors : sum local = 9.9398382e-07, global = 1.0235158e-07, cumulative = 0.00046281234
ExecutionTime = 94.82 s  ClockTime = 95 s
Inflow      : 3.5558189e-05 [kg/s]
Outflow     : 3.5558275e-05 [kg/s]
EnergyInflow  : 10.506101 [W]
EnergyOutflow : 10.618844 [W]
EnergyBalance : 0.11274334 [W]
rho max/avg/min : 1.2016464 1.1524282 1.0463821
T   max/avg/min : 337.2212 306.90907 293.68635
P   max/avg/min : 101324.91 101316.16 101307.4
Prg max/avg/min : 101325 101324.61 101322.73
U   max/avg/min : 0.71814164 0.21663197 0
Prg max-min : 2.2717661
 
sngrad(rho) :-0.00012241797 -0.00016542535 -0.00040102909
 
Iteration Number = 855

DILUPBiCG:  Solving for Ux, Initial residual = 0.00010535994, Final residual = 9.3948387e-09, No Iterations 2
DILUPBiCG:  Solving for Uy, Initial residual = 0.011894025, Final residual = 3.5548595e-07, No Iterations 3
DILUPBiCG:  Solving for Uz, Initial residual = 3.2156365e-06, Final residual = 1.4314441e-09, No Iterations 2
DILUPBiCG:  Solving for h, Initial residual = 3.1356123e-06, Final residual = 5.8494221e-09, No Iterations 4
GAMG:  Solving for p_rgh, Initial residual = 1.2556014e-06, Final residual = 7.4979439e-08, No Iterations 1
time step continuity errors : sum local = 5.9397843e-07, global = 1.2748024e-07, cumulative = 0.00046293982
ExecutionTime = 94.85 s  ClockTime = 95 s
Inflow      : 3.5558068e-05 [kg/s]
Outflow     : 3.5558174e-05 [kg/s]
EnergyInflow  : 10.506065 [W]
EnergyOutflow : 10.618815 [W]
EnergyBalance : 0.11275039 [W]
rho max/avg/min : 1.2016464 1.1524284 1.0463841
T   max/avg/min : 337.22058 306.90901 293.68635
P   max/avg/min : 101324.91 101316.16 101307.4
Prg max/avg/min : 101325 101324.61 101322.73
U   max/avg/min : 0.71814658 0.21663296 0
Prg max-min : 2.2717293
 
sngrad(rho) :-0.00012720475 -0.00016765662 -0.00036299109
 
Iteration Number = 856

DILUPBiCG:  Solving for Ux, Initial residual = 6.5094494e-05, Final residual = 1.3215977e-08, No Iterations 2
DILUPBiCG:  Solving for Uy, Initial residual = 0.012454077, Final residual = 1.0626257e-05, No Iterations 2
DILUPBiCG:  Solving for Uz, Initial residual = 3.1657315e-06, Final residual = 1.3917504e-09, No Iterations 2
DILUPBiCG:  Solving for h, Initial residual = 2.9383101e-06, Final residual = 6.3197997e-09, No Iterations 4
GAMG:  Solving for p_rgh, Initial residual = 1.194419e-06, Final residual = 4.4065953e-08, No Iterations 1
time step continuity errors : sum local = 3.4884478e-07, global = 1.390111e-07, cumulative = 0.00046307883
ExecutionTime = 94.88 s  ClockTime = 95 s
Inflow      : 3.5557953e-05 [kg/s]
Outflow     : 3.5558069e-05 [kg/s]
EnergyInflow  : 10.506031 [W]
EnergyOutflow : 10.618785 [W]
EnergyBalance : 0.11275398 [W]
rho max/avg/min : 1.2016464 1.1524286 1.0463858
T   max/avg/min : 337.22002 306.90895 293.68635
P   max/avg/min : 101324.91 101316.16 101307.4
Prg max/avg/min : 101325 101324.61 101322.73
U   max/avg/min : 0.71815149 0.21663394 0
Prg max-min : 2.2717099
 
sngrad(rho) :-0.00013071847 -0.00016970461 -0.00033750391
 
Iteration Number = 857

DILUPBiCG:  Solving for Ux, Initial residual = 4.5408602e-05, Final residual = 3.0588156e-09, No Iterations 2
DILUPBiCG:  Solving for Uy, Initial residual = 0.012014458, Final residual = 1.2020974e-07, No Iterations 3
DILUPBiCG:  Solving for Uz, Initial residual = 3.1201779e-06, Final residual = 1.2947907e-09, No Iterations 2
DILUPBiCG:  Solving for h, Initial residual = 2.8080569e-06, Final residual = 8.2373079e-09, No Iterations 4
GAMG:  Solving for p_rgh, Initial residual = 9.5160719e-07, Final residual = 9.5160719e-07, No Iterations 0
time step continuity errors : sum local = 7.4860214e-06, global = 6.744068e-08, cumulative = 0.00046314627
ExecutionTime = 94.91 s  ClockTime = 95 s
Inflow      : 3.5557906e-05 [kg/s]
Outflow     : 3.5557963e-05 [kg/s]
EnergyInflow  : 10.506017 [W]
EnergyOutflow : 10.618754 [W]
EnergyBalance : 0.11273698 [W]
rho max/avg/min : 1.2016464 1.1524288 1.0463874
T   max/avg/min : 337.2195 306.90888 293.68635
P   max/avg/min : 101324.91 101316.16 101307.4
Prg max/avg/min : 101325 101324.61 101322.73
U   max/avg/min : 0.71815646 0.21663493 0
Prg max-min : 2.2717099
 
sngrad(rho) :-0.0001339119 -0.00017152367 -0.00031917904
 
Iteration Number = 858

DILUPBiCG:  Solving for Ux, Initial residual = 0.00040767627, Final residual = 6.002488e-10, No Iterations 3
DILUPBiCG:  Solving for Uy, Initial residual = 0.012231889, Final residual = 5.321092e-06, No Iterations 2
DILUPBiCG:  Solving for Uz, Initial residual = 3.2089323e-06, Final residual = 6.7476472e-10, No Iterations 2
DILUPBiCG:  Solving for h, Initial residual = 3.9079198e-06, Final residual = 3.2297097e-09, No Iterations 5
GAMG:  Solving for p_rgh, Initial residual = 5.6611483e-06, Final residual = 2.3428163e-07, No Iterations 1
time step continuity errors : sum local = 1.8460637e-06, global = 1.417152e-07, cumulative = 0.00046328799
ExecutionTime = 94.93 s  ClockTime = 95 s
Inflow      : 3.5557735e-05 [kg/s]
Outflow     : 3.5557853e-05 [kg/s]
EnergyInflow  : 10.505967 [W]
EnergyOutflow : 10.618722 [W]
EnergyBalance : 0.11275583 [W]
rho max/avg/min : 1.2016464 1.1524291 1.046389
T   max/avg/min : 337.219 306.90878 293.68635
P   max/avg/min : 101324.91 101316.16 101307.4
Prg max/avg/min : 101325 101324.61 101322.73
U   max/avg/min : 0.7181612 0.216636 0
Prg max-min : 2.2716178
 
sngrad(rho) :-0.00012565234 -0.00021324765 -0.00031586811
 
Iteration Number = 859

DILUPBiCG:  Solving for Ux, Initial residual = 0.00068632613, Final residual = 2.0048472e-07, No Iterations 2
DILUPBiCG:  Solving for Uy, Initial residual = 0.012224004, Final residual = 5.9757377e-06, No Iterations 2
DILUPBiCG:  Solving for Uz, Initial residual = 3.0087513e-06, Final residual = 1.0229778e-09, No Iterations 2
DILUPBiCG:  Solving for h, Initial residual = 2.6536846e-06, Final residual = 2.0058501e-09, No Iterations 5
GAMG:  Solving for p_rgh, Initial residual = 2.9079224e-06, Final residual = 1.5081743e-07, No Iterations 1
time step continuity errors : sum local = 1.1883367e-06, global = 1.8280167e-07, cumulative = 0.00046347079
ExecutionTime = 94.96 s  ClockTime = 95 s
Inflow      : 3.555761e-05 [kg/s]
Outflow     : 3.5557762e-05 [kg/s]
EnergyInflow  : 10.50593 [W]
EnergyOutflow : 10.618695 [W]
EnergyBalance : 0.11276536 [W]
rho max/avg/min : 1.2016464 1.1524293 1.0463904
T   max/avg/min : 337.21853 306.90871 293.68635
P   max/avg/min : 101324.91 101316.16 101307.4
Prg max/avg/min : 101325 101324.61 101322.73
U   max/avg/min : 0.71816602 0.21663699 0
Prg max-min : 2.2716687
 
sngrad(rho) :-0.00012596613 -0.000171161 -0.00030108768
 
Iteration Number = 860

DILUPBiCG:  Solving for Ux, Initial residual = 0.00045165518, Final residual = 1.486324e-09, No Iterations 3
DILUPBiCG:  Solving for Uy, Initial residual = 0.012286367, Final residual = 4.920474e-07, No Iterations 3
DILUPBiCG:  Solving for Uz, Initial residual = 2.9967255e-06, Final residual = 9.3866925e-10, No Iterations 2
DILUPBiCG:  Solving for h, Initial residual = 2.5473973e-06, Final residual = 7.7893938e-09, No Iterations 4
GAMG:  Solving for G, Initial residual = 0.073737528, Final residual = 0.073392562, No Iterations 1000
GAMG:  Solving for p_rgh, Initial residual = 2.3782973e-06, Final residual = 4.8480011e-08, No Iterations 1
time step continuity errors : sum local = 3.8465734e-07, global = 1.8445282e-07, cumulative = 0.00046365524
ExecutionTime = 95.8 s  ClockTime = 96 s
Inflow      : 3.5557512e-05 [kg/s]
Outflow     : 3.5557666e-05 [kg/s]
EnergyInflow  : 10.505901 [W]
EnergyOutflow : 10.618667 [W]
EnergyBalance : 0.11276631 [W]
rho max/avg/min : 1.2016464 1.1524295 1.0463918
T   max/avg/min : 337.21808 306.90864 293.68635
P   max/avg/min : 101324.91 101316.16 101307.4
Prg max/avg/min : 101325 101324.61 101322.73
U   max/avg/min : 0.7181708 0.21663796 0
Prg max-min : 2.2716017
 
sngrad(rho) :-0.00012893684 -0.00017228631 -0.00029186429
 
Iteration Number = 861

DILUPBiCG:  Solving for Ux, Initial residual = 0.000289152, Final residual = 1.1508431e-07, No Iterations 2
DILUPBiCG:  Solving for Uy, Initial residual = 0.012144368, Final residual = 5.058739e-06, No Iterations 2
DILUPBiCG:  Solving for Uz, Initial residual = 2.9482973e-06, Final residual = 1.0934876e-09, No Iterations 2
DILUPBiCG:  Solving for h, Initial residual = 3.9260196e-06, Final residual = 5.3628991e-09, No Iterations 4
GAMG:  Solving for p_rgh, Initial residual = 1.5600206e-06, Final residual = 4.1652652e-08, No Iterations 1
time step continuity errors : sum local = 3.2882492e-07, global = 1.545628e-07, cumulative = 0.00046380981
ExecutionTime = 95.83 s  ClockTime = 96 s
Inflow      : 3.5557435e-05 [kg/s]
Outflow     : 3.5557564e-05 [kg/s]
EnergyInflow  : 10.505878 [W]
EnergyOutflow : 10.618638 [W]
EnergyBalance : 0.11275942 [W]
rho max/avg/min : 1.2016464 1.1524296 1.0463901
T   max/avg/min : 337.21863 306.90862 293.68635
P   max/avg/min : 101324.91 101316.16 101307.4
Prg max/avg/min : 101325 101324.61 101322.73
U   max/avg/min : 0.71817554 0.21663893 0
Prg max-min : 2.2716572
 
sngrad(rho) :0.00012203271 -0.00015068058 -0.00023100159
 
Iteration Number = 862

DILUPBiCG:  Solving for Ux, Initial residual = 0.00019079614, Final residual = 7.3058867e-08, No Iterations 2
DILUPBiCG:  Solving for Uy, Initial residual = 0.011769947, Final residual = 1.8713811e-07, No Iterations 3
DILUPBiCG:  Solving for Uz, Initial residual = 2.9280567e-06, Final residual = 1.0229789e-09, No Iterations 2
DILUPBiCG:  Solving for h, Initial residual = 1.7083086e-06, Final residual = 3.3232636e-09, No Iterations 4
GAMG:  Solving for p_rgh, Initial residual = 1.323608e-06, Final residual = 2.8654278e-08, No Iterations 1
time step continuity errors : sum local = 2.2885929e-07, global = 1.032112e-07, cumulative = 0.00046391302
ExecutionTime = 95.87 s  ClockTime = 96 s
Inflow      : 3.5557377e-05 [kg/s]
Outflow     : 3.5557464e-05 [kg/s]
EnergyInflow  : 10.505861 [W]
EnergyOutflow : 10.618608 [W]
EnergyBalance : 0.11274719 [W]
rho max/avg/min : 1.2016464 1.1524297 1.0463897
T   max/avg/min : 337.21876 306.9086 293.68635
P   max/avg/min : 101324.91 101316.16 101307.4
Prg max/avg/min : 101325 101324.61 101322.73
U   max/avg/min : 0.71818024 0.21663989 0
Prg max-min : 2.2716435
 
sngrad(rho) :-5.0873926e-05 -0.00015191502 -0.00021138955
 
Iteration Number = 863

DILUPBiCG:  Solving for Ux, Initial residual = 0.00012187315, Final residual = 3.1212102e-08, No Iterations 2
DILUPBiCG:  Solving for Uy, Initial residual = 0.012387829, Final residual = 6.8020375e-06, No Iterations 2
DILUPBiCG:  Solving for Uz, Initial residual = 2.8831438e-06, Final residual = 9.8811369e-10, No Iterations 2
DILUPBiCG:  Solving for h, Initial residual = 1.1860623e-06, Final residual = 8.3422035e-09, No Iterations 3
GAMG:  Solving for p_rgh, Initial residual = 6.7163958e-07, Final residual = 6.7163958e-07, No Iterations 0
time step continuity errors : sum local = 5.283011e-06, global = 1.367858e-08, cumulative = 0.0004639267
ExecutionTime = 95.9 s  ClockTime = 96 s
Inflow      : 3.5557353e-05 [kg/s]
Outflow     : 3.5557365e-05 [kg/s]
EnergyInflow  : 10.505854 [W]
EnergyOutflow : 10.618579 [W]
EnergyBalance : 0.11272552 [W]
rho max/avg/min : 1.2016464 1.1524297 1.0463896
T   max/avg/min : 337.21879 306.90858 293.68635
P   max/avg/min : 101324.91 101316.16 101307.4
Prg max/avg/min : 101325 101324.61 101322.73
U   max/avg/min : 0.71818498 0.21664085 0
Prg max-min : 2.2716435
 
sngrad(rho) :-9.6471411e-05 -0.00015258708 -0.00019993231
 
Iteration Number = 864

DILUPBiCG:  Solving for Ux, Initial residual = 0.00027816758, Final residual = 2.0784349e-08, No Iterations 2
DILUPBiCG:  Solving for Uy, Initial residual = 0.012291636, Final residual = 1.4377791e-07, No Iterations 3
DILUPBiCG:  Solving for Uz, Initial residual = 2.8425232e-06, Final residual = 6.4185882e-10, No Iterations 2
DILUPBiCG:  Solving for h, Initial residual = 1.2156167e-06, Final residual = 4.3125621e-09, No Iterations 4
GAMG:  Solving for p_rgh, Initial residual = 3.612247e-06, Final residual = 1.5270725e-07, No Iterations 1
time step continuity errors : sum local = 1.2047093e-06, global = -3.2216298e-08, cumulative = 0.00046389448
ExecutionTime = 95.93 s  ClockTime = 96 s
Inflow      : 3.5557283e-05 [kg/s]
Outflow     : 3.5557256e-05 [kg/s]
EnergyInflow  : 10.505833 [W]
EnergyOutflow : 10.618547 [W]
EnergyBalance : 0.11271448 [W]
rho max/avg/min : 1.2016464 1.1524299 1.0463896
T   max/avg/min : 337.2188 306.90854 293.68635
P   max/avg/min : 101324.91 101316.16 101307.4
Prg max/avg/min : 101325 101324.61 101322.73
U   max/avg/min : 0.7181895 0.21664173 0
Prg max-min : 2.2716739
 
sngrad(rho) :-0.00010123642 -0.00017067861 -0.00027204012
 
Iteration Number = 865

DILUPBiCG:  Solving for Ux, Initial residual = 0.00048270734, Final residual = 4.9881826e-08, No Iterations 2
DILUPBiCG:  Solving for Uy, Initial residual = 0.011912946, Final residual = 7.020997e-06, No Iterations 2
DILUPBiCG:  Solving for Uz, Initial residual = 2.832365e-06, Final residual = 1.0376272e-09, No Iterations 2
DILUPBiCG:  Solving for h, Initial residual = 8.5287383e-07, Final residual = 4.1095333e-10, No Iterations 5
GAMG:  Solving for p_rgh, Initial residual = 2.2301738e-06, Final residual = 1.5394763e-07, No Iterations 1
time step continuity errors : sum local = 1.2133634e-06, global = -9.9540741e-08, cumulative = 0.00046379494
ExecutionTime = 95.97 s  ClockTime = 96 s
Inflow      : 3.5557229e-05 [kg/s]
Outflow     : 3.5557146e-05 [kg/s]
EnergyInflow  : 10.505817 [W]
EnergyOutflow : 10.618514 [W]
EnergyBalance : 0.11269672 [W]
rho max/avg/min : 1.2016464 1.15243 1.0463897
T   max/avg/min : 337.21876 306.90852 293.68635
P   max/avg/min : 101324.91 101316.16 101307.4
Prg max/avg/min : 101325 101324.61 101322.73
U   max/avg/min : 0.71819409 0.21664266 0
Prg max-min : 2.2716375
 
sngrad(rho) :-0.00012172188 -0.00015381817 -0.00019528093
 
Iteration Number = 866

DILUPBiCG:  Solving for Ux, Initial residual = 0.00030681056, Final residual = 7.1647645e-08, No Iterations 2
DILUPBiCG:  Solving for Uy, Initial residual = 0.011840416, Final residual = 6.1163374e-06, No Iterations 2
DILUPBiCG:  Solving for Uz, Initial residual = 2.8009793e-06, Final residual = 8.21524e-10, No Iterations 2
DILUPBiCG:  Solving for h, Initial residual = 7.1550841e-07, Final residual = 4.2477296e-09, No Iterations 4
GAMG:  Solving for p_rgh, Initial residual = 1.9297774e-06, Final residual = 5.1978362e-08, No Iterations 1
time step continuity errors : sum local = 4.1431673e-07, global = -1.6919463e-07, cumulative = 0.00046362574
ExecutionTime = 95.99 s  ClockTime = 96 s
Inflow      : 3.5557173e-05 [kg/s]
Outflow     : 3.5557032e-05 [kg/s]
EnergyInflow  : 10.505801 [W]
EnergyOutflow : 10.61848 [W]
EnergyBalance : 0.11267973 [W]
rho max/avg/min : 1.2016464 1.15243 1.0463899
T   max/avg/min : 337.2187 306.9085 293.68635
P   max/avg/min : 101324.91 101316.16 101307.4
Prg max/avg/min : 101325 101324.61 101322.73
U   max/avg/min : 0.71819864 0.21664359 0
Prg max-min : 2.271658
 
sngrad(rho) :-0.00013135459 -0.00015186483 -0.00018866209
 
Iteration Number = 867

DILUPBiCG:  Solving for Ux, Initial residual = 0.00019437823, Final residual = 2.0722791e-08, No Iterations 2
DILUPBiCG:  Solving for Uy, Initial residual = 0.011588989, Final residual = 2.1806882e-07, No Iterations 3
DILUPBiCG:  Solving for Uz, Initial residual = 2.774634e-06, Final residual = 1.0448366e-09, No Iterations 2
DILUPBiCG:  Solving for h, Initial residual = 6.9664407e-07, Final residual = 6.0707808e-09, No Iterations 3
GAMG:  Solving for p_rgh, Initial residual = 5.2853619e-07, Final residual = 5.2853619e-07, No Iterations 0
time step continuity errors : sum local = 4.1570971e-06, global = -2.6229563e-07, cumulative = 0.00046336345
ExecutionTime = 96.02 s  ClockTime = 96 s
Inflow      : 3.5557149e-05 [kg/s]
Outflow     : 3.5556931e-05 [kg/s]
EnergyInflow  : 10.505794 [W]
EnergyOutflow : 10.618451 [W]
EnergyBalance : 0.11265708 [W]
rho max/avg/min : 1.2016464 1.1524301 1.0463901
T   max/avg/min : 337.21862 306.90847 293.68635
P   max/avg/min : 101324.91 101316.16 101307.4
Prg max/avg/min : 101325 101324.61 101322.73
U   max/avg/min : 0.7182032 0.21664451 0
Prg max-min : 2.271658
 
sngrad(rho) :-0.00013703405 -0.00015220857 -0.00018545667
 

SIMPLE solution converged in 867 iterations

End

