/*---------------------------------------------------------------------------*\
| =========                 |                                                 |
| \\      /  F ield         | OpenFOAM: The Open Source CFD Toolbox           |
|  \\    /   O peration     | Version:  4.0                                   |
|   \\  /    A nd           | Web:      www.OpenFOAM.org                      |
|    \\/     M anipulation  |                                                 |
\*---------------------------------------------------------------------------*/
Build  : 4.0-665f1db4c1f1
Exec   : pupoBuoyantSimpleFoam
Date   : Sep 27 2016
Time   : 00:30:15
Host   : "FAB2000"
PID    : 10366
Case   : /home/pedro/Documents/ThesisProject/OpenFoam/validation1rod/fvDOM
nProcs : 1
sigFpe : Enabling floating point exception trapping (FOAM_SIGFPE).
fileModificationChecking : Monitoring run-time modified files using timeStampMaster
allowSystemOperations : Allowing user-supplied system call operations

// * * * * * * * * * * * * * * * * * * * * * * * * * * * * * * * * * * * * * //
Create time

--> FOAM Warning : 
    From function void* Foam::dlOpen(const Foam::fileName&, bool)
    in file POSIX.C at line 1037
    dlopen error : radiatingwall.so: cannot open shared object file: No such file or directory
--> FOAM Warning : 
    From function bool Foam::dlLibraryTable::open(const Foam::fileName&, bool)
    in file db/dynamicLibrary/dlLibraryTable/dlLibraryTable.C at line 97
    could not load "radiatingwall.so"
Create mesh for time = 0


SIMPLE: convergence criteria
    field p_rgh	 tolerance 1e-06
    field Uz	 tolerance 1e-06
    field h	 tolerance 1e-06

Reading thermophysical properties

Selecting thermodynamics package 
{
    type            heRhoThermo;
    mixture         pureMixture;
    transport       sutherland;
    thermo          hConst;
    equationOfState perfectGas;
    specie          specie;
    energy          sensibleEnthalpy;
}


Reading g

Reading hRef
Calculating field g.h

Selecting turbulence model type laminar
No MRF models present

Selecting radiationModel fvDOM
Selecting absorptionEmissionModel constantAbsorptionEmission
Selecting scatterModel none
fvDOM : Allocated 16 rays with average orientation:
	I0 : omega : 	0.78539816
	I1 : omega : 	0.78539816
	I2 : omega : 	0.78539816
	I3 : omega : 	0.78539816
	I4 : omega : 	0.78539816
	I5 : omega : 	0.78539816
	I6 : omega : 	0.78539816
	I7 : omega : 	0.78539816
	I8 : omega : 	0.78539816
	I9 : omega : 	0.78539816
	I10 : omega : 	0.78539816
	I11 : omega : 	0.78539816
	I12 : omega : 	0.78539816
	I13 : omega : 	0.78539816
	I14 : omega : 	0.78539816
	I15 : omega : 	0.78539816

 
rho max/avg/min : 1.2016452 1.2015414 1.2014377
T   max/avg/min : 293.7 293.7 293.7
P   max/avg/min : 101324.91 101316.16 101307.41
Prg max/avg/min : 101325 101325 101325
U   max/avg/min : 0 0 0
 
sngrad(rho) :-0.00013977519 -0.00013977519 -0.00013977519
 
No finite volume options present


Starting Iteration loop

Iteration Number = 1

DILUPBiCG:  Solving for Ux, Initial residual = 2.3034354e-10, Final residual = 2.3034354e-10, No Iterations 0
DILUPBiCG:  Solving for Uy, Initial residual = 4.8698736e-07, Final residual = 2.590422e-09, No Iterations 1
DILUPBiCG:  Solving for Uz, Initial residual = 1, Final residual = 0.0001017747, No Iterations 2
DILUPBiCG:  Solving for h, Initial residual = 1, Final residual = 0.00045974982, No Iterations 1
Radiation solver iter: 0
GAMG:  Solving for ILambda_0_0, Initial residual = 1, Final residual = 2.1526356e-17, No Iterations 1
GAMG:  Solving for ILambda_1_0, Initial residual = 1, Final residual = 4.1012198e-17, No Iterations 1
GAMG:  Solving for ILambda_2_0, Initial residual = 1, Final residual = 5.5888571e-17, No Iterations 1
GAMG:  Solving for ILambda_3_0, Initial residual = 1, Final residual = 3.2544181e-17, No Iterations 1
GAMG:  Solving for ILambda_4_0, Initial residual = 1, Final residual = 3.8080056e-08, No Iterations 2
GAMG:  Solving for ILambda_5_0, Initial residual = 1, Final residual = 5.1444585e-06, No Iterations 2
GAMG:  Solving for ILambda_6_0, Initial residual = 1, Final residual = 5.1444585e-06, No Iterations 2
GAMG:  Solving for ILambda_7_0, Initial residual = 1, Final residual = 3.8080056e-08, No Iterations 2
GAMG:  Solving for ILambda_8_0, Initial residual = 1, Final residual = 4.9354752e-06, No Iterations 1
GAMG:  Solving for ILambda_9_0, Initial residual = 1, Final residual = 8.959197e-05, No Iterations 1
GAMG:  Solving for ILambda_10_0, Initial residual = 1, Final residual = 8.959197e-05, No Iterations 1
GAMG:  Solving for ILambda_11_0, Initial residual = 1, Final residual = 4.9354752e-06, No Iterations 1
GAMG:  Solving for ILambda_12_0, Initial residual = 1, Final residual = 3.5908928e-17, No Iterations 1
GAMG:  Solving for ILambda_13_0, Initial residual = 1, Final residual = 1.4798507e-16, No Iterations 1
GAMG:  Solving for ILambda_14_0, Initial residual = 1, Final residual = 1.3290129e-16, No Iterations 1
GAMG:  Solving for ILambda_15_0, Initial residual = 1, Final residual = 2.9776001e-17, No Iterations 1
Radiation solver iter: 1
GAMG:  Solving for ILambda_0_0, Initial residual = 0.08846941, Final residual = 3.3040185e-18, No Iterations 1
GAMG:  Solving for ILambda_1_0, Initial residual = 0.057934211, Final residual = 1.3912773e-17, No Iterations 1
GAMG:  Solving for ILambda_2_0, Initial residual = 0.057934211, Final residual = 1.3004088e-17, No Iterations 1
GAMG:  Solving for ILambda_3_0, Initial residual = 0.08846941, Final residual = 6.9627016e-18, No Iterations 1
GAMG:  Solving for ILambda_4_0, Initial residual = 0.40223023, Final residual = 9.285614e-05, No Iterations 1
GAMG:  Solving for ILambda_5_0, Initial residual = 0.29593154, Final residual = 1.3022516e-06, No Iterations 2
GAMG:  Solving for ILambda_6_0, Initial residual = 0.29593154, Final residual = 1.3022516e-06, No Iterations 2
GAMG:  Solving for ILambda_7_0, Initial residual = 0.40223023, Final residual = 9.285614e-05, No Iterations 1
GAMG:  Solving for ILambda_8_0, Initial residual = 0.088469443, Final residual = 3.1417739e-07, No Iterations 1
GAMG:  Solving for ILambda_9_0, Initial residual = 0.057934692, Final residual = 5.3123579e-06, No Iterations 1
GAMG:  Solving for ILambda_10_0, Initial residual = 0.057934692, Final residual = 5.3123579e-06, No Iterations 1
GAMG:  Solving for ILambda_11_0, Initial residual = 0.088469443, Final residual = 3.1417739e-07, No Iterations 1
GAMG:  Solving for ILambda_12_0, Initial residual = 0.40223023, Final residual = 7.5074368e-18, No Iterations 1
GAMG:  Solving for ILambda_13_0, Initial residual = 0.29593179, Final residual = 4.1654723e-17, No Iterations 1
GAMG:  Solving for ILambda_14_0, Initial residual = 0.29593179, Final residual = 5.0923265e-17, No Iterations 1
GAMG:  Solving for ILambda_15_0, Initial residual = 0.40223023, Final residual = 1.1793221e-17, No Iterations 1
Radiation solver iter: 2
GAMG:  Solving for ILambda_0_0, Initial residual = 0.036385589, Final residual = 1.3795329e-18, No Iterations 1
GAMG:  Solving for ILambda_1_0, Initial residual = 0.027311884, Final residual = 1.0658337e-17, No Iterations 1
GAMG:  Solving for ILambda_2_0, Initial residual = 0.027311884, Final residual = 1.0831882e-17, No Iterations 1
GAMG:  Solving for ILambda_3_0, Initial residual = 0.036385589, Final residual = 1.4568373e-18, No Iterations 1
GAMG:  Solving for ILambda_4_0, Initial residual = 0.16200955, Final residual = 3.3304057e-05, No Iterations 1
GAMG:  Solving for ILambda_5_0, Initial residual = 0.1753761, Final residual = 6.4894084e-07, No Iterations 2
GAMG:  Solving for ILambda_6_0, Initial residual = 0.1753761, Final residual = 6.4894084e-07, No Iterations 2
GAMG:  Solving for ILambda_7_0, Initial residual = 0.16200955, Final residual = 3.3304057e-05, No Iterations 1
GAMG:  Solving for ILambda_8_0, Initial residual = 0.036385577, Final residual = 1.4211945e-07, No Iterations 1
GAMG:  Solving for ILambda_9_0, Initial residual = 0.027311785, Final residual = 1.9183071e-06, No Iterations 1
GAMG:  Solving for ILambda_10_0, Initial residual = 0.027311785, Final residual = 1.9183071e-06, No Iterations 1
GAMG:  Solving for ILambda_11_0, Initial residual = 0.036385577, Final residual = 1.4211945e-07, No Iterations 1
GAMG:  Solving for ILambda_12_0, Initial residual = 0.16201095, Final residual = 2.8748037e-17, No Iterations 1
GAMG:  Solving for ILambda_13_0, Initial residual = 0.1753761, Final residual = 7.3597619e-17, No Iterations 1
GAMG:  Solving for ILambda_14_0, Initial residual = 0.1753761, Final residual = 7.2164697e-17, No Iterations 1
GAMG:  Solving for ILambda_15_0, Initial residual = 0.16201095, Final residual = 3.2145045e-17, No Iterations 1
Radiation solver iter: 3
GAMG:  Solving for ILambda_0_0, Initial residual = 0.023567869, Final residual = 5.0042982e-18, No Iterations 1
GAMG:  Solving for ILambda_1_0, Initial residual = 0.019870906, Final residual = 1.0609543e-17, No Iterations 1
GAMG:  Solving for ILambda_2_0, Initial residual = 0.019870906, Final residual = 1.0350597e-17, No Iterations 1
GAMG:  Solving for ILambda_3_0, Initial residual = 0.023567869, Final residual = 3.539071e-18, No Iterations 1
GAMG:  Solving for ILambda_4_0, Initial residual = 0.12092176, Final residual = 1.4134926e-05, No Iterations 1
GAMG:  Solving for ILambda_5_0, Initial residual = 0.12443352, Final residual = 5.8309014e-07, No Iterations 2
GAMG:  Solving for ILambda_6_0, Initial residual = 0.12443352, Final residual = 5.8309014e-07, No Iterations 2
GAMG:  Solving for ILambda_7_0, Initial residual = 0.12092176, Final residual = 1.4134926e-05, No Iterations 1
GAMG:  Solving for ILambda_8_0, Initial residual = 0.023567851, Final residual = 9.8817811e-08, No Iterations 1
GAMG:  Solving for ILambda_9_0, Initial residual = 0.019871007, Final residual = 1.0887528e-06, No Iterations 1
GAMG:  Solving for ILambda_10_0, Initial residual = 0.019871007, Final residual = 1.0887528e-06, No Iterations 1
GAMG:  Solving for ILambda_11_0, Initial residual = 0.023567851, Final residual = 9.8817811e-08, No Iterations 1
GAMG:  Solving for ILambda_12_0, Initial residual = 0.1209149, Final residual = 1.8781182e-17, No Iterations 1
GAMG:  Solving for ILambda_13_0, Initial residual = 0.12443356, Final residual = 6.7625423e-17, No Iterations 1
GAMG:  Solving for ILambda_14_0, Initial residual = 0.12443356, Final residual = 7.0723029e-17, No Iterations 1
GAMG:  Solving for ILambda_15_0, Initial residual = 0.1209149, Final residual = 1.2616578e-17, No Iterations 1
Radiation solver iter: 4
GAMG:  Solving for ILambda_0_0, Initial residual = 0.017681911, Final residual = 5.1336654e-18, No Iterations 1
GAMG:  Solving for ILambda_1_0, Initial residual = 0.015606668, Final residual = 9.8110199e-18, No Iterations 1
GAMG:  Solving for ILambda_2_0, Initial residual = 0.015606668, Final residual = 1.0144881e-17, No Iterations 1
GAMG:  Solving for ILambda_3_0, Initial residual = 0.017681911, Final residual = 6.5818281e-18, No Iterations 1
GAMG:  Solving for ILambda_4_0, Initial residual = 0.097202135, Final residual = 4.9610275e-06, No Iterations 1
GAMG:  Solving for ILambda_5_0, Initial residual = 0.10330088, Final residual = 2.9249587e-07, No Iterations 2
GAMG:  Solving for ILambda_6_0, Initial residual = 0.10330088, Final residual = 2.9249587e-07, No Iterations 2
GAMG:  Solving for ILambda_7_0, Initial residual = 0.097202135, Final residual = 4.9610275e-06, No Iterations 1
GAMG:  Solving for ILambda_8_0, Initial residual = 0.017681894, Final residual = 7.5845542e-08, No Iterations 1
GAMG:  Solving for ILambda_9_0, Initial residual = 0.015606636, Final residual = 8.9184533e-07, No Iterations 1
GAMG:  Solving for ILambda_10_0, Initial residual = 0.015606636, Final residual = 8.9184533e-07, No Iterations 1
GAMG:  Solving for ILambda_11_0, Initial residual = 0.017681894, Final residual = 7.5845542e-08, No Iterations 1
GAMG:  Solving for ILambda_12_0, Initial residual = 0.09719974, Final residual = 1.4321058e-17, No Iterations 1
GAMG:  Solving for ILambda_13_0, Initial residual = 0.10330095, Final residual = 7.6113754e-17, No Iterations 1
GAMG:  Solving for ILambda_14_0, Initial residual = 0.10330095, Final residual = 7.6095063e-17, No Iterations 1
GAMG:  Solving for ILambda_15_0, Initial residual = 0.09719974, Final residual = 1.5970295e-17, No Iterations 1
Radiation solver iter: 5
GAMG:  Solving for ILambda_0_0, Initial residual = 0.014072396, Final residual = 5.9755774e-18, No Iterations 1
GAMG:  Solving for ILambda_1_0, Initial residual = 0.013173387, Final residual = 1.3335612e-17, No Iterations 1
GAMG:  Solving for ILambda_2_0, Initial residual = 0.013173387, Final residual = 1.2026681e-17, No Iterations 1
GAMG:  Solving for ILambda_3_0, Initial residual = 0.014072396, Final residual = 2.7403448e-18, No Iterations 1
GAMG:  Solving for ILambda_4_0, Initial residual = 0.076971625, Final residual = 1.9420526e-06, No Iterations 1
GAMG:  Solving for ILambda_5_0, Initial residual = 0.083395835, Final residual = 8.9311991e-05, No Iterations 1
GAMG:  Solving for ILambda_6_0, Initial residual = 0.083395835, Final residual = 8.9311991e-05, No Iterations 1
GAMG:  Solving for ILambda_7_0, Initial residual = 0.076971625, Final residual = 1.9420526e-06, No Iterations 1
GAMG:  Solving for ILambda_8_0, Initial residual = 0.014072391, Final residual = 6.1574093e-08, No Iterations 1
GAMG:  Solving for ILambda_9_0, Initial residual = 0.013173596, Final residual = 7.9550968e-07, No Iterations 1
GAMG:  Solving for ILambda_10_0, Initial residual = 0.013173596, Final residual = 7.9550968e-07, No Iterations 1
GAMG:  Solving for ILambda_11_0, Initial residual = 0.014072391, Final residual = 6.1574093e-08, No Iterations 1
GAMG:  Solving for ILambda_12_0, Initial residual = 0.076963424, Final residual = 1.8604086e-17, No Iterations 1
GAMG:  Solving for ILambda_13_0, Initial residual = 0.083395898, Final residual = 8.597558e-17, No Iterations 1
GAMG:  Solving for ILambda_14_0, Initial residual = 0.083395898, Final residual = 8.5879082e-17, No Iterations 1
GAMG:  Solving for ILambda_15_0, Initial residual = 0.076963424, Final residual = 1.5016811e-17, No Iterations 1
Radiation solver iter: 6
GAMG:  Solving for ILambda_0_0, Initial residual = 0.011882693, Final residual = 3.7772644e-18, No Iterations 1
GAMG:  Solving for ILambda_1_0, Initial residual = 0.011628228, Final residual = 1.1332454e-17, No Iterations 1
GAMG:  Solving for ILambda_2_0, Initial residual = 0.011628228, Final residual = 1.1499214e-17, No Iterations 1
GAMG:  Solving for ILambda_3_0, Initial residual = 0.011882693, Final residual = 4.5795703e-18, No Iterations 1
GAMG:  Solving for ILambda_4_0, Initial residual = 0.065729267, Final residual = 4.8572874e-06, No Iterations 1
GAMG:  Solving for ILambda_5_0, Initial residual = 0.067364297, Final residual = 5.5396425e-05, No Iterations 1
GAMG:  Solving for ILambda_6_0, Initial residual = 0.067364297, Final residual = 5.5396425e-05, No Iterations 1
GAMG:  Solving for ILambda_7_0, Initial residual = 0.065729267, Final residual = 4.8572874e-06, No Iterations 1
GAMG:  Solving for ILambda_8_0, Initial residual = 0.011882673, Final residual = 5.5547004e-08, No Iterations 1
GAMG:  Solving for ILambda_9_0, Initial residual = 0.011628291, Final residual = 7.1195747e-07, No Iterations 1
GAMG:  Solving for ILambda_10_0, Initial residual = 0.011628291, Final residual = 7.1195747e-07, No Iterations 1
GAMG:  Solving for ILambda_11_0, Initial residual = 0.011882673, Final residual = 5.5547004e-08, No Iterations 1
GAMG:  Solving for ILambda_12_0, Initial residual = 0.06572367, Final residual = 1.7203419e-17, No Iterations 1
GAMG:  Solving for ILambda_13_0, Initial residual = 0.06736026, Final residual = 8.2450802e-17, No Iterations 1
GAMG:  Solving for ILambda_14_0, Initial residual = 0.06736026, Final residual = 8.4924695e-17, No Iterations 1
GAMG:  Solving for ILambda_15_0, Initial residual = 0.06572367, Final residual = 1.6582626e-17, No Iterations 1
Radiation solver iter: 7
GAMG:  Solving for ILambda_0_0, Initial residual = 0.010322237, Final residual = 3.825896e-18, No Iterations 1
GAMG:  Solving for ILambda_1_0, Initial residual = 0.010630837, Final residual = 1.0115718e-17, No Iterations 1
GAMG:  Solving for ILambda_2_0, Initial residual = 0.010630837, Final residual = 1.2409385e-17, No Iterations 1
GAMG:  Solving for ILambda_3_0, Initial residual = 0.010322237, Final residual = 6.0164773e-18, No Iterations 1
GAMG:  Solving for ILambda_4_0, Initial residual = 0.057343241, Final residual = 6.2831009e-06, No Iterations 1
GAMG:  Solving for ILambda_5_0, Initial residual = 0.058551785, Final residual = 5.1944473e-05, No Iterations 1
GAMG:  Solving for ILambda_6_0, Initial residual = 0.058551785, Final residual = 5.1944473e-05, No Iterations 1
GAMG:  Solving for ILambda_7_0, Initial residual = 0.057343241, Final residual = 6.2831009e-06, No Iterations 1
GAMG:  Solving for ILambda_8_0, Initial residual = 0.010322221, Final residual = 5.1825441e-08, No Iterations 1
GAMG:  Solving for ILambda_9_0, Initial residual = 0.010630935, Final residual = 6.5826688e-07, No Iterations 1
GAMG:  Solving for ILambda_10_0, Initial residual = 0.010630935, Final residual = 6.5826688e-07, No Iterations 1
GAMG:  Solving for ILambda_11_0, Initial residual = 0.010322221, Final residual = 5.1825441e-08, No Iterations 1
GAMG:  Solving for ILambda_12_0, Initial residual = 0.057338691, Final residual = 2.73168e-17, No Iterations 1
GAMG:  Solving for ILambda_13_0, Initial residual = 0.058556618, Final residual = 8.717693e-17, No Iterations 1
GAMG:  Solving for ILambda_14_0, Initial residual = 0.058556618, Final residual = 8.5530603e-17, No Iterations 1
GAMG:  Solving for ILambda_15_0, Initial residual = 0.057338691, Final residual = 3.0901744e-17, No Iterations 1
Radiation solver iter: 8
GAMG:  Solving for ILambda_0_0, Initial residual = 0.0090652865, Final residual = 3.8521151e-18, No Iterations 1
GAMG:  Solving for ILambda_1_0, Initial residual = 0.0099512627, Final residual = 1.1754934e-17, No Iterations 1
GAMG:  Solving for ILambda_2_0, Initial residual = 0.0099512627, Final residual = 1.2510492e-17, No Iterations 1
GAMG:  Solving for ILambda_3_0, Initial residual = 0.0090652865, Final residual = 4.4929145e-18, No Iterations 1
GAMG:  Solving for ILambda_4_0, Initial residual = 0.05021886, Final residual = 6.8074631e-06, No Iterations 1
GAMG:  Solving for ILambda_5_0, Initial residual = 0.04973478, Final residual = 4.332159e-05, No Iterations 1
GAMG:  Solving for ILambda_6_0, Initial residual = 0.04973478, Final residual = 4.332159e-05, No Iterations 1
GAMG:  Solving for ILambda_7_0, Initial residual = 0.05021886, Final residual = 6.8074631e-06, No Iterations 1
GAMG:  Solving for ILambda_8_0, Initial residual = 0.0090652824, Final residual = 4.8935978e-08, No Iterations 1
GAMG:  Solving for ILambda_9_0, Initial residual = 0.009951403, Final residual = 6.1703985e-07, No Iterations 1
GAMG:  Solving for ILambda_10_0, Initial residual = 0.009951403, Final residual = 6.1703985e-07, No Iterations 1
GAMG:  Solving for ILambda_11_0, Initial residual = 0.0090652824, Final residual = 4.8935978e-08, No Iterations 1
GAMG:  Solving for ILambda_12_0, Initial residual = 0.050214691, Final residual = 3.7590063e-17, No Iterations 1
GAMG:  Solving for ILambda_13_0, Initial residual = 0.049739629, Final residual = 9.2933121e-17, No Iterations 1
GAMG:  Solving for ILambda_14_0, Initial residual = 0.049739629, Final residual = 8.6293552e-17, No Iterations 1
GAMG:  Solving for ILambda_15_0, Initial residual = 0.050214691, Final residual = 4.0428928e-17, No Iterations 1
Radiation solver iter: 9
GAMG:  Solving for ILambda_0_0, Initial residual = 0.0080792619, Final residual = 4.0624847e-18, No Iterations 1
GAMG:  Solving for ILambda_1_0, Initial residual = 0.0095114904, Final residual = 1.1558969e-17, No Iterations 1
GAMG:  Solving for ILambda_2_0, Initial residual = 0.0095114904, Final residual = 1.245908e-17, No Iterations 1
GAMG:  Solving for ILambda_3_0, Initial residual = 0.0080792619, Final residual = 4.7063556e-18, No Iterations 1
GAMG:  Solving for ILambda_4_0, Initial residual = 0.044937242, Final residual = 6.6900921e-06, No Iterations 1
GAMG:  Solving for ILambda_5_0, Initial residual = 0.04430536, Final residual = 2.8403267e-05, No Iterations 1
GAMG:  Solving for ILambda_6_0, Initial residual = 0.04430536, Final residual = 2.8403267e-05, No Iterations 1
GAMG:  Solving for ILambda_7_0, Initial residual = 0.044937242, Final residual = 6.6900921e-06, No Iterations 1
GAMG:  Solving for ILambda_8_0, Initial residual = 0.0080792566, Final residual = 4.6218658e-08, No Iterations 1
GAMG:  Solving for ILambda_9_0, Initial residual = 0.0095116356, Final residual = 5.9669823e-07, No Iterations 1
GAMG:  Solving for ILambda_10_0, Initial residual = 0.0095116356, Final residual = 5.9669823e-07, No Iterations 1
GAMG:  Solving for ILambda_11_0, Initial residual = 0.0080792566, Final residual = 4.6218658e-08, No Iterations 1
GAMG:  Solving for ILambda_12_0, Initial residual = 0.044934405, Final residual = 3.198944e-17, No Iterations 1
GAMG:  Solving for ILambda_13_0, Initial residual = 0.044322461, Final residual = 8.6701311e-17, No Iterations 1
GAMG:  Solving for ILambda_14_0, Initial residual = 0.044322461, Final residual = 9.3308176e-17, No Iterations 1
GAMG:  Solving for ILambda_15_0, Initial residual = 0.044934405, Final residual = 3.7824846e-17, No Iterations 1
GAMG:  Solving for p_rgh, Initial residual = 0.73311637, Final residual = 0.00064939107, No Iterations 2
time step continuity errors : sum local = 0.00010792962, global = -2.4258508e-05, cumulative = -2.4258508e-05
ExecutionTime = 0.52 s  ClockTime = 0 s
Inflow      : -1.2211424e-07 [kg/s]
Outflow     : -1.4234582e-07 [kg/s]
EnergyInflow  : -0.036080142 [W]
EnergyOutflow : -0.04205781 [W]
EnergyBalance : -0.0059776676 [W]
rho max/avg/min : 1.2016452 1.1980051 1.1399242
T   max/avg/min : 309.54886 294.59253 293.7
P   max/avg/min : 101324.91 101316.16 101307.41
Prg max/avg/min : 101325 101324.97 101324.1
U   max/avg/min : 4.6798745e-05 -4.5776582e-05 -0.00052620322
Prg max-min : 0.9014711
 
sngrad(rho) :8.2016552 0.47146484 -0.00013740643
 
Iteration Number = 2

DILUPBiCG:  Solving for Ux, Initial residual = 0.36284089, Final residual = 2.7579171e-05, No Iterations 2
DILUPBiCG:  Solving for Uy, Initial residual = 5.3901697e-05, Final residual = 3.9685693e-09, No Iterations 2
DILUPBiCG:  Solving for Uz, Initial residual = 0.35617494, Final residual = 1.0884094e-05, No Iterations 2
DILUPBiCG:  Solving for h, Initial residual = 0.21111587, Final residual = 7.0094661e-05, No Iterations 1
GAMG:  Solving for p_rgh, Initial residual = 0.029268901, Final residual = 2.6144665e-05, No Iterations 3
time step continuity errors : sum local = 6.4425788e-05, global = 2.2895739e-05, cumulative = -1.362769e-06
ExecutionTime = 0.55 s  ClockTime = 0 s
Inflow      : -2.4243709e-07 [kg/s]
Outflow     : -2.2334206e-07 [kg/s]
EnergyInflow  : -0.071630996 [W]
EnergyOutflow : -0.065989136 [W]
EnergyBalance : 0.0056418605 [W]
rho max/avg/min : 1.2016452 1.1954243 1.1201326
T   max/avg/min : 315.01827 295.25909 293.7
P   max/avg/min : 101324.91 101316.16 101307.41
Prg max/avg/min : 101325 101324.95 101323.81
U   max/avg/min : 0.00013316979 -7.1045065e-05 -0.00057560469
Prg max-min : 1.1918002
 
sngrad(rho) :10.84054 0.82303301 -0.00013428196
 
Iteration Number = 3

DILUPBiCG:  Solving for Ux, Initial residual = 0.40572739, Final residual = 3.8719106e-05, No Iterations 2
DILUPBiCG:  Solving for Uy, Initial residual = 6.7624895e-05, Final residual = 6.9120232e-09, No Iterations 2
DILUPBiCG:  Solving for Uz, Initial residual = 0.13629961, Final residual = 2.6852589e-06, No Iterations 2
DILUPBiCG:  Solving for h, Initial residual = 0.14723389, Final residual = 4.6283469e-05, No Iterations 1
GAMG:  Solving for p_rgh, Initial residual = 0.011171133, Final residual = 2.5202907e-06, No Iterations 3
time step continuity errors : sum local = 1.0143409e-05, global = 2.7767313e-06, cumulative = 1.4139623e-06
ExecutionTime = 0.58 s  ClockTime = 0 s
Inflow      : -1.7990644e-07 [kg/s]
Outflow     : -1.7759064e-07 [kg/s]
EnergyInflow  : -0.053155551 [W]
EnergyOutflow : -0.052471128 [W]
EnergyBalance : 0.00068442359 [W]
rho max/avg/min : 1.2016452 1.1928327 1.103257
T   max/avg/min : 319.83685 295.93884 293.70001
P   max/avg/min : 101324.91 101316.16 101307.41
Prg max/avg/min : 101325 101324.94 101323.56
U   max/avg/min : 0.00024548678 -2.8703098e-05 -0.00043507996
Prg max-min : 1.4393429
 
sngrad(rho) :2.3277056 0.35748185 -0.00013144465
 
Iteration Number = 4

DILUPBiCG:  Solving for Ux, Initial residual = 0.38749992, Final residual = 2.8717844e-05, No Iterations 2
DILUPBiCG:  Solving for Uy, Initial residual = 5.7196449e-05, Final residual = 4.9626075e-09, No Iterations 2
DILUPBiCG:  Solving for Uz, Initial residual = 0.25470569, Final residual = 4.3537436e-06, No Iterations 2
DILUPBiCG:  Solving for h, Initial residual = 0.11103708, Final residual = 4.44515e-05, No Iterations 1
GAMG:  Solving for p_rgh, Initial residual = 0.0072713246, Final residual = 6.0761319e-07, No Iterations 3
time step continuity errors : sum local = 3.4100875e-06, global = 4.6710526e-07, cumulative = 1.8810676e-06
ExecutionTime = 0.62 s  ClockTime = 0 s
Inflow      : -1.4319669e-07 [kg/s]
Outflow     : -1.4280713e-07 [kg/s]
EnergyInflow  : -0.04230921 [W]
EnergyOutflow : -0.042193553 [W]
EnergyBalance : 0.0001156573 [W]
rho max/avg/min : 1.2016452 1.1902351 1.088894
T   max/avg/min : 324.05565 296.62861 293.70002
P   max/avg/min : 101324.91 101316.16 101307.41
Prg max/avg/min : 101325 101324.92 101323.35
U   max/avg/min : 0.00039278225 2.3297813e-05 -0.00034869373
Prg max-min : 1.6492731
 
sngrad(rho) :1.9772959 0.35638506 -0.00012882015
 
Iteration Number = 5

DILUPBiCG:  Solving for Ux, Initial residual = 0.29290811, Final residual = 1.546953e-05, No Iterations 2
DILUPBiCG:  Solving for Uy, Initial residual = 3.7990263e-05, Final residual = 3.2329211e-09, No Iterations 2
DILUPBiCG:  Solving for Uz, Initial residual = 0.16405847, Final residual = 0.00016359859, No Iterations 1
DILUPBiCG:  Solving for h, Initial residual = 0.089693542, Final residual = 4.6463266e-05, No Iterations 1
GAMG:  Solving for p_rgh, Initial residual = 0.0055604944, Final residual = 1.7345756e-06, No Iterations 3
time step continuity errors : sum local = 1.2415444e-05, global = -2.7931016e-07, cumulative = 1.6017574e-06
ExecutionTime = 0.65 s  ClockTime = 0 s
Inflow      : -1.1634067e-07 [kg/s]
Outflow     : -1.1657362e-07 [kg/s]
EnergyInflow  : -0.034374271 [W]
EnergyOutflow : -0.03444185 [W]
EnergyBalance : -6.7578186e-05 [W]
rho max/avg/min : 1.2016451 1.1876298 1.076291
T   max/avg/min : 327.85023 297.32782 293.70002
P   max/avg/min : 101324.91 101316.16 101307.41
Prg max/avg/min : 101325 101324.9 101323.17
U   max/avg/min : 0.00056730649 8.8369388e-05 -0.00029088335
Prg max-min : 1.8339298
 
sngrad(rho) :1.7493298 0.35679449 -0.00012769235
 
Iteration Number = 6

DILUPBiCG:  Solving for Ux, Initial residual = 0.15347234, Final residual = 5.7874858e-06, No Iterations 2
DILUPBiCG:  Solving for Uy, Initial residual = 3.9888876e-05, Final residual = 2.8704289e-09, No Iterations 2
DILUPBiCG:  Solving for Uz, Initial residual = 0.1879678, Final residual = 9.2085906e-07, No Iterations 2
DILUPBiCG:  Solving for h, Initial residual = 0.07558769, Final residual = 4.9847929e-05, No Iterations 1
GAMG:  Solving for p_rgh, Initial residual = 0.0046397592, Final residual = 4.0144642e-06, No Iterations 3
time step continuity errors : sum local = 3.5129864e-05, global = 1.0615677e-05, cumulative = 1.2217434e-05
ExecutionTime = 0.68 s  ClockTime = 0 s
Inflow      : -1.0489823e-07 [kg/s]
Outflow     : -9.6044758e-08 [kg/s]
EnergyInflow  : -0.030993461 [W]
EnergyOutflow : -0.028375148 [W]
EnergyBalance : 0.0026183125 [W]
rho max/avg/min : 1.2016451 1.1850168 1.0649771
T   max/avg/min : 331.33316 298.03588 293.70002
P   max/avg/min : 101324.91 101316.16 101307.41
Prg max/avg/min : 101325 101324.88 101323
U   max/avg/min : 0.00077852333 0.00017227187 -0.00026358884
Prg max-min : 1.9994215
 
sngrad(rho) :1.5840788 0.35723903 -0.00012839237
 
Iteration Number = 7

DILUPBiCG:  Solving for Ux, Initial residual = 0.22326962, Final residual = 9.7712089e-06, No Iterations 2
DILUPBiCG:  Solving for Uy, Initial residual = 4.2353771e-05, Final residual = 2.5511102e-09, No Iterations 2
DILUPBiCG:  Solving for Uz, Initial residual = 0.16313533, Final residual = 6.313677e-05, No Iterations 1
DILUPBiCG:  Solving for h, Initial residual = 0.06556348, Final residual = 5.5081362e-05, No Iterations 1
GAMG:  Solving for p_rgh, Initial residual = 0.0040906797, Final residual = 1.3092965e-06, No Iterations 4
time step continuity errors : sum local = 1.3540122e-05, global = 5.7323551e-06, cumulative = 1.7949789e-05
ExecutionTime = 0.7 s  ClockTime = 0 s
Inflow      : -8.4905985e-08 [kg/s]
Outflow     : -8.0125204e-08 [kg/s]
EnergyInflow  : -0.025086509 [W]
EnergyOutflow : -0.023669574 [W]
EnergyBalance : 0.0014169355 [W]
rho max/avg/min : 1.2016451 1.1823967 1.054655
T   max/avg/min : 334.57598 298.75215 293.70002
P   max/avg/min : 101324.91 101316.16 101307.41
Prg max/avg/min : 101325 101324.86 101322.85
U   max/avg/min : 0.0010264759 0.00028664295 -0.00023053467
Prg max-min : 2.1506571
 
sngrad(rho) :1.4533198 0.35822623 -0.00012853424
 
Iteration Number = 8

DILUPBiCG:  Solving for Ux, Initial residual = 0.28000348, Final residual = 1.2076391e-05, No Iterations 2
DILUPBiCG:  Solving for Uy, Initial residual = 4.9470532e-05, Final residual = 2.9542021e-09, No Iterations 2
DILUPBiCG:  Solving for Uz, Initial residual = 0.17371864, Final residual = 7.4436145e-07, No Iterations 2
DILUPBiCG:  Solving for h, Initial residual = 0.058059978, Final residual = 1.1889748e-06, No Iterations 2
GAMG:  Solving for p_rgh, Initial residual = 0.0037939588, Final residual = 1.3230051e-06, No Iterations 4
time step continuity errors : sum local = 1.5821904e-05, global = 4.6795273e-06, cumulative = 2.2629317e-05
ExecutionTime = 0.74 s  ClockTime = 0 s
Inflow      : -7.145404e-08 [kg/s]
Outflow     : -6.7551317e-08 [kg/s]
EnergyInflow  : -0.021111968 [W]
EnergyOutflow : -0.019951431 [W]
EnergyBalance : 0.0011605368 [W]
rho max/avg/min : 1.2016451 1.179767 1.0451299
T   max/avg/min : 337.62524 299.47689 293.70002
P   max/avg/min : 101324.91 101316.16 101307.41
Prg max/avg/min : 101325 101324.84 101322.71
U   max/avg/min : 0.0013163774 0.00043437756 -0.00020910424
Prg max-min : 2.2899946
 
sngrad(rho) :1.353283 0.35915935 -0.00012717879
 
Iteration Number = 9

DILUPBiCG:  Solving for Ux, Initial residual = 0.21539511, Final residual = 8.7746189e-06, No Iterations 2
DILUPBiCG:  Solving for Uy, Initial residual = 6.3397632e-05, Final residual = 2.9565524e-09, No Iterations 2
DILUPBiCG:  Solving for Uz, Initial residual = 0.16178101, Final residual = 6.44257e-05, No Iterations 1
DILUPBiCG:  Solving for h, Initial residual = 0.052250437, Final residual = 1.6589121e-06, No Iterations 2
GAMG:  Solving for p_rgh, Initial residual = 0.0036261676, Final residual = 8.888064e-07, No Iterations 4
time step continuity errors : sum local = 1.2074737e-05, global = -6.9262919e-07, cumulative = 2.1936687e-05
ExecutionTime = 0.77 s  ClockTime = 0 s
Inflow      : -5.6553166e-08 [kg/s]
Outflow     : -5.7130818e-08 [kg/s]
EnergyInflow  : -0.016709323 [W]
EnergyOutflow : -0.016867978 [W]
EnergyBalance : -0.00015865542 [W]
rho max/avg/min : 1.2016451 1.1771315 1.0362567
T   max/avg/min : 340.51625 300.20887 293.70003
P   max/avg/min : 101324.91 101316.16 101307.41
Prg max/avg/min : 101325 101324.82 101322.58
U   max/avg/min : 0.001658987 0.00062185744 -0.00020198093
Prg max-min : 2.419893
 
sngrad(rho) :1.2696722 0.35999543 -0.00012287999
 
Iteration Number = 10

DILUPBiCG:  Solving for Ux, Initial residual = 0.13140657, Final residual = 5.0523129e-06, No Iterations 2
DILUPBiCG:  Solving for Uy, Initial residual = 8.485801e-05, Final residual = 2.5550662e-09, No Iterations 2
DILUPBiCG:  Solving for Uz, Initial residual = 0.15833586, Final residual = 8.2850881e-05, No Iterations 1
DILUPBiCG:  Solving for h, Initial residual = 0.047561191, Final residual = 2.259488e-06, No Iterations 2
Radiation solver iter: 0
GAMG:  Solving for ILambda_0_0, Initial residual = 0.0088811957, Final residual = 3.6319147e-18, No Iterations 1
GAMG:  Solving for ILambda_1_0, Initial residual = 0.011774704, Final residual = 1.3047886e-17, No Iterations 1
GAMG:  Solving for ILambda_2_0, Initial residual = 0.011774704, Final residual = 1.2872871e-17, No Iterations 1
GAMG:  Solving for ILambda_3_0, Initial residual = 0.0088811957, Final residual = 3.747168e-18, No Iterations 1
GAMG:  Solving for ILambda_4_0, Initial residual = 0.040595181, Final residual = 6.1652257e-06, No Iterations 1
GAMG:  Solving for ILambda_5_0, Initial residual = 0.038702656, Final residual = 1.8037741e-05, No Iterations 1
GAMG:  Solving for ILambda_6_0, Initial residual = 0.038702656, Final residual = 1.8037741e-05, No Iterations 1
GAMG:  Solving for ILambda_7_0, Initial residual = 0.040595181, Final residual = 6.1652257e-06, No Iterations 1
GAMG:  Solving for ILambda_8_0, Initial residual = 0.0088839537, Final residual = 4.478159e-08, No Iterations 1
GAMG:  Solving for ILambda_9_0, Initial residual = 0.011776265, Final residual = 5.964467e-07, No Iterations 1
GAMG:  Solving for ILambda_10_0, Initial residual = 0.011776265, Final residual = 5.964467e-07, No Iterations 1
GAMG:  Solving for ILambda_11_0, Initial residual = 0.0088839537, Final residual = 4.478159e-08, No Iterations 1
GAMG:  Solving for ILambda_12_0, Initial residual = 0.040594038, Final residual = 4.0374432e-17, No Iterations 1
GAMG:  Solving for ILambda_13_0, Initial residual = 0.038716505, Final residual = 9.7790081e-17, No Iterations 1
GAMG:  Solving for ILambda_14_0, Initial residual = 0.038716505, Final residual = 9.3910155e-17, No Iterations 1
GAMG:  Solving for ILambda_15_0, Initial residual = 0.040594038, Final residual = 3.6987798e-17, No Iterations 1
Radiation solver iter: 1
GAMG:  Solving for ILambda_0_0, Initial residual = 0.0079200936, Final residual = 4.8438514e-18, No Iterations 1
GAMG:  Solving for ILambda_1_0, Initial residual = 0.010594756, Final residual = 1.201013e-17, No Iterations 1
GAMG:  Solving for ILambda_2_0, Initial residual = 0.010594756, Final residual = 1.3504633e-17, No Iterations 1
GAMG:  Solving for ILambda_3_0, Initial residual = 0.0079200936, Final residual = 4.0231065e-18, No Iterations 1
GAMG:  Solving for ILambda_4_0, Initial residual = 0.036851562, Final residual = 5.47618e-06, No Iterations 1
GAMG:  Solving for ILambda_5_0, Initial residual = 0.034506866, Final residual = 1.5466467e-05, No Iterations 1
GAMG:  Solving for ILambda_6_0, Initial residual = 0.034506866, Final residual = 1.5466467e-05, No Iterations 1
GAMG:  Solving for ILambda_7_0, Initial residual = 0.036851562, Final residual = 5.47618e-06, No Iterations 1
GAMG:  Solving for ILambda_8_0, Initial residual = 0.0079232585, Final residual = 3.9499306e-08, No Iterations 1
GAMG:  Solving for ILambda_9_0, Initial residual = 0.010596448, Final residual = 5.3665981e-07, No Iterations 1
GAMG:  Solving for ILambda_10_0, Initial residual = 0.010596448, Final residual = 5.3665981e-07, No Iterations 1
GAMG:  Solving for ILambda_11_0, Initial residual = 0.0079232585, Final residual = 3.9499306e-08, No Iterations 1
GAMG:  Solving for ILambda_12_0, Initial residual = 0.036851024, Final residual = 3.4993231e-17, No Iterations 1
GAMG:  Solving for ILambda_13_0, Initial residual = 0.03452521, Final residual = 9.5506026e-17, No Iterations 1
GAMG:  Solving for ILambda_14_0, Initial residual = 0.03452521, Final residual = 9.8904836e-17, No Iterations 1
GAMG:  Solving for ILambda_15_0, Initial residual = 0.036851024, Final residual = 3.8418627e-17, No Iterations 1
Radiation solver iter: 2
GAMG:  Solving for ILambda_0_0, Initial residual = 0.0067138365, Final residual = 3.5147449e-18, No Iterations 1
GAMG:  Solving for ILambda_1_0, Initial residual = 0.0099794515, Final residual = 1.3321433e-17, No Iterations 1
GAMG:  Solving for ILambda_2_0, Initial residual = 0.0099794515, Final residual = 1.2708742e-17, No Iterations 1
GAMG:  Solving for ILambda_3_0, Initial residual = 0.0067138365, Final residual = 3.9695316e-18, No Iterations 1
GAMG:  Solving for ILambda_4_0, Initial residual = 0.033531291, Final residual = 4.7674141e-06, No Iterations 1
GAMG:  Solving for ILambda_5_0, Initial residual = 0.031025531, Final residual = 1.3379143e-05, No Iterations 1
GAMG:  Solving for ILambda_6_0, Initial residual = 0.031025531, Final residual = 1.3379143e-05, No Iterations 1
GAMG:  Solving for ILambda_7_0, Initial residual = 0.033531291, Final residual = 4.7674141e-06, No Iterations 1
GAMG:  Solving for ILambda_8_0, Initial residual = 0.006716556, Final residual = 3.3289065e-08, No Iterations 1
GAMG:  Solving for ILambda_9_0, Initial residual = 0.0099809128, Final residual = 5.112975e-07, No Iterations 1
GAMG:  Solving for ILambda_10_0, Initial residual = 0.0099809128, Final residual = 5.112975e-07, No Iterations 1
GAMG:  Solving for ILambda_11_0, Initial residual = 0.006716556, Final residual = 3.3289065e-08, No Iterations 1
GAMG:  Solving for ILambda_12_0, Initial residual = 0.033530493, Final residual = 2.8919017e-17, No Iterations 1
GAMG:  Solving for ILambda_13_0, Initial residual = 0.031038207, Final residual = 1.020208e-16, No Iterations 1
GAMG:  Solving for ILambda_14_0, Initial residual = 0.031038207, Final residual = 1.0408885e-16, No Iterations 1
GAMG:  Solving for ILambda_15_0, Initial residual = 0.033530493, Final residual = 2.9961323e-17, No Iterations 1
Radiation solver iter: 3
GAMG:  Solving for ILambda_0_0, Initial residual = 0.006024991, Final residual = 4.2662321e-18, No Iterations 1
GAMG:  Solving for ILambda_1_0, Initial residual = 0.0097582803, Final residual = 1.3063167e-17, No Iterations 1
GAMG:  Solving for ILambda_2_0, Initial residual = 0.0097582803, Final residual = 1.2748558e-17, No Iterations 1
GAMG:  Solving for ILambda_3_0, Initial residual = 0.006024991, Final residual = 3.7506338e-18, No Iterations 1
GAMG:  Solving for ILambda_4_0, Initial residual = 0.03123428, Final residual = 4.1017407e-06, No Iterations 1
GAMG:  Solving for ILambda_5_0, Initial residual = 0.027712976, Final residual = 1.0040648e-05, No Iterations 1
GAMG:  Solving for ILambda_6_0, Initial residual = 0.027712976, Final residual = 1.0040648e-05, No Iterations 1
GAMG:  Solving for ILambda_7_0, Initial residual = 0.03123428, Final residual = 4.1017407e-06, No Iterations 1
GAMG:  Solving for ILambda_8_0, Initial residual = 0.0060272322, Final residual = 3.1469927e-08, No Iterations 1
GAMG:  Solving for ILambda_9_0, Initial residual = 0.0097594814, Final residual = 5.0355197e-07, No Iterations 1
GAMG:  Solving for ILambda_10_0, Initial residual = 0.0097594814, Final residual = 5.0355197e-07, No Iterations 1
GAMG:  Solving for ILambda_11_0, Initial residual = 0.0060272322, Final residual = 3.1469927e-08, No Iterations 1
GAMG:  Solving for ILambda_12_0, Initial residual = 0.031233169, Final residual = 3.4013806e-17, No Iterations 1
GAMG:  Solving for ILambda_13_0, Initial residual = 0.027727071, Final residual = 1.0427838e-16, No Iterations 1
GAMG:  Solving for ILambda_14_0, Initial residual = 0.027727071, Final residual = 1.0530558e-16, No Iterations 1
GAMG:  Solving for ILambda_15_0, Initial residual = 0.031233169, Final residual = 2.9594663e-17, No Iterations 1
Radiation solver iter: 4
GAMG:  Solving for ILambda_0_0, Initial residual = 0.0054725225, Final residual = 3.4040254e-18, No Iterations 1
GAMG:  Solving for ILambda_1_0, Initial residual = 0.0095009338, Final residual = 1.2158482e-17, No Iterations 1
GAMG:  Solving for ILambda_2_0, Initial residual = 0.0095009338, Final residual = 1.2780716e-17, No Iterations 1
GAMG:  Solving for ILambda_3_0, Initial residual = 0.0054725225, Final residual = 3.8551984e-18, No Iterations 1
GAMG:  Solving for ILambda_4_0, Initial residual = 0.029106181, Final residual = 3.4321048e-06, No Iterations 1
GAMG:  Solving for ILambda_5_0, Initial residual = 0.025380019, Final residual = 7.0449833e-06, No Iterations 1
GAMG:  Solving for ILambda_6_0, Initial residual = 0.025380019, Final residual = 7.0449833e-06, No Iterations 1
GAMG:  Solving for ILambda_7_0, Initial residual = 0.029106181, Final residual = 3.4321048e-06, No Iterations 1
GAMG:  Solving for ILambda_8_0, Initial residual = 0.005474335, Final residual = 2.9760525e-08, No Iterations 1
GAMG:  Solving for ILambda_9_0, Initial residual = 0.0095019994, Final residual = 5.0850708e-07, No Iterations 1
GAMG:  Solving for ILambda_10_0, Initial residual = 0.0095019994, Final residual = 5.0850708e-07, No Iterations 1
GAMG:  Solving for ILambda_11_0, Initial residual = 0.005474335, Final residual = 2.9760525e-08, No Iterations 1
GAMG:  Solving for ILambda_12_0, Initial residual = 0.029104239, Final residual = 2.9912472e-17, No Iterations 1
GAMG:  Solving for ILambda_13_0, Initial residual = 0.025395438, Final residual = 1.0812644e-16, No Iterations 1
GAMG:  Solving for ILambda_14_0, Initial residual = 0.025395438, Final residual = 1.0833801e-16, No Iterations 1
GAMG:  Solving for ILambda_15_0, Initial residual = 0.029104239, Final residual = 2.9884165e-17, No Iterations 1
Radiation solver iter: 5
GAMG:  Solving for ILambda_0_0, Initial residual = 0.0050352371, Final residual = 4.6632099e-18, No Iterations 1
GAMG:  Solving for ILambda_1_0, Initial residual = 0.0093814525, Final residual = 1.4824624e-17, No Iterations 1
GAMG:  Solving for ILambda_2_0, Initial residual = 0.0093814525, Final residual = 1.3866095e-17, No Iterations 1
GAMG:  Solving for ILambda_3_0, Initial residual = 0.0050352371, Final residual = 3.6876482e-18, No Iterations 1
GAMG:  Solving for ILambda_4_0, Initial residual = 0.027307892, Final residual = 2.7978856e-06, No Iterations 1
GAMG:  Solving for ILambda_5_0, Initial residual = 0.023068382, Final residual = 5.5408448e-06, No Iterations 1
GAMG:  Solving for ILambda_6_0, Initial residual = 0.023068382, Final residual = 5.5408448e-06, No Iterations 1
GAMG:  Solving for ILambda_7_0, Initial residual = 0.027307892, Final residual = 2.7978856e-06, No Iterations 1
GAMG:  Solving for ILambda_8_0, Initial residual = 0.0050368105, Final residual = 2.8032363e-08, No Iterations 1
GAMG:  Solving for ILambda_9_0, Initial residual = 0.0093824445, Final residual = 5.2698861e-07, No Iterations 1
GAMG:  Solving for ILambda_10_0, Initial residual = 0.0093824445, Final residual = 5.2698861e-07, No Iterations 1
GAMG:  Solving for ILambda_11_0, Initial residual = 0.0050368105, Final residual = 2.8032363e-08, No Iterations 1
GAMG:  Solving for ILambda_12_0, Initial residual = 0.027305967, Final residual = 3.0842661e-17, No Iterations 1
GAMG:  Solving for ILambda_13_0, Initial residual = 0.023076213, Final residual = 1.1927715e-16, No Iterations 1
GAMG:  Solving for ILambda_14_0, Initial residual = 0.023076213, Final residual = 1.1086526e-16, No Iterations 1
GAMG:  Solving for ILambda_15_0, Initial residual = 0.027305967, Final residual = 2.6548886e-17, No Iterations 1
Radiation solver iter: 6
GAMG:  Solving for ILambda_0_0, Initial residual = 0.004693499, Final residual = 4.6985368e-18, No Iterations 1
GAMG:  Solving for ILambda_1_0, Initial residual = 0.0093750054, Final residual = 1.3389434e-17, No Iterations 1
GAMG:  Solving for ILambda_2_0, Initial residual = 0.0093750054, Final residual = 1.3828283e-17, No Iterations 1
GAMG:  Solving for ILambda_3_0, Initial residual = 0.004693499, Final residual = 3.8012213e-18, No Iterations 1
GAMG:  Solving for ILambda_4_0, Initial residual = 0.025808117, Final residual = 2.2294873e-06, No Iterations 1
GAMG:  Solving for ILambda_5_0, Initial residual = 0.021053194, Final residual = 4.5947354e-06, No Iterations 1
GAMG:  Solving for ILambda_6_0, Initial residual = 0.021053194, Final residual = 4.5947354e-06, No Iterations 1
GAMG:  Solving for ILambda_7_0, Initial residual = 0.025808117, Final residual = 2.2294873e-06, No Iterations 1
GAMG:  Solving for ILambda_8_0, Initial residual = 0.0046948378, Final residual = 2.6549415e-08, No Iterations 1
GAMG:  Solving for ILambda_9_0, Initial residual = 0.0093759191, Final residual = 5.5678131e-07, No Iterations 1
GAMG:  Solving for ILambda_10_0, Initial residual = 0.0093759191, Final residual = 5.5678131e-07, No Iterations 1
GAMG:  Solving for ILambda_11_0, Initial residual = 0.0046948378, Final residual = 2.6549415e-08, No Iterations 1
GAMG:  Solving for ILambda_12_0, Initial residual = 0.025805971, Final residual = 2.8809942e-17, No Iterations 1
GAMG:  Solving for ILambda_13_0, Initial residual = 0.021067114, Final residual = 1.1786083e-16, No Iterations 1
GAMG:  Solving for ILambda_14_0, Initial residual = 0.021067114, Final residual = 1.1621448e-16, No Iterations 1
GAMG:  Solving for ILambda_15_0, Initial residual = 0.025805971, Final residual = 3.0450379e-17, No Iterations 1
Radiation solver iter: 7
GAMG:  Solving for ILambda_0_0, Initial residual = 0.0044077495, Final residual = 3.9542358e-18, No Iterations 1
GAMG:  Solving for ILambda_1_0, Initial residual = 0.0094661941, Final residual = 1.4387927e-17, No Iterations 1
GAMG:  Solving for ILambda_2_0, Initial residual = 0.0094661941, Final residual = 1.4770724e-17, No Iterations 1
GAMG:  Solving for ILambda_3_0, Initial residual = 0.0044077495, Final residual = 3.623696e-18, No Iterations 1
GAMG:  Solving for ILambda_4_0, Initial residual = 0.024603008, Final residual = 1.7971419e-06, No Iterations 1
GAMG:  Solving for ILambda_5_0, Initial residual = 0.019446669, Final residual = 3.5786733e-06, No Iterations 1
GAMG:  Solving for ILambda_6_0, Initial residual = 0.019446669, Final residual = 3.5786733e-06, No Iterations 1
GAMG:  Solving for ILambda_7_0, Initial residual = 0.024603008, Final residual = 1.7971419e-06, No Iterations 1
GAMG:  Solving for ILambda_8_0, Initial residual = 0.0044089096, Final residual = 2.4959682e-08, No Iterations 1
GAMG:  Solving for ILambda_9_0, Initial residual = 0.0094670572, Final residual = 5.9894173e-07, No Iterations 1
GAMG:  Solving for ILambda_10_0, Initial residual = 0.0094670572, Final residual = 5.9894173e-07, No Iterations 1
GAMG:  Solving for ILambda_11_0, Initial residual = 0.0044089096, Final residual = 2.4959682e-08, No Iterations 1
GAMG:  Solving for ILambda_12_0, Initial residual = 0.024602338, Final residual = 3.8669791e-17, No Iterations 1
GAMG:  Solving for ILambda_13_0, Initial residual = 0.019456431, Final residual = 1.2116898e-16, No Iterations 1
GAMG:  Solving for ILambda_14_0, Initial residual = 0.019456431, Final residual = 1.1892782e-16, No Iterations 1
GAMG:  Solving for ILambda_15_0, Initial residual = 0.024602338, Final residual = 4.0804352e-17, No Iterations 1
Radiation solver iter: 8
GAMG:  Solving for ILambda_0_0, Initial residual = 0.0041471107, Final residual = 4.3256507e-18, No Iterations 1
GAMG:  Solving for ILambda_1_0, Initial residual = 0.0096290425, Final residual = 1.4575576e-17, No Iterations 1
GAMG:  Solving for ILambda_2_0, Initial residual = 0.0096290425, Final residual = 1.4421043e-17, No Iterations 1
GAMG:  Solving for ILambda_3_0, Initial residual = 0.0041471107, Final residual = 4.6181496e-18, No Iterations 1
GAMG:  Solving for ILambda_4_0, Initial residual = 0.023485675, Final residual = 1.5583529e-06, No Iterations 1
GAMG:  Solving for ILambda_5_0, Initial residual = 0.017962529, Final residual = 2.889232e-06, No Iterations 1
GAMG:  Solving for ILambda_6_0, Initial residual = 0.017962529, Final residual = 2.889232e-06, No Iterations 1
GAMG:  Solving for ILambda_7_0, Initial residual = 0.023485675, Final residual = 1.5583529e-06, No Iterations 1
GAMG:  Solving for ILambda_8_0, Initial residual = 0.0041481366, Final residual = 2.3511272e-08, No Iterations 1
GAMG:  Solving for ILambda_9_0, Initial residual = 0.0096298514, Final residual = 6.5621686e-07, No Iterations 1
GAMG:  Solving for ILambda_10_0, Initial residual = 0.0096298514, Final residual = 6.5621686e-07, No Iterations 1
GAMG:  Solving for ILambda_11_0, Initial residual = 0.0041481366, Final residual = 2.3511272e-08, No Iterations 1
GAMG:  Solving for ILambda_12_0, Initial residual = 0.023484494, Final residual = 3.8907863e-17, No Iterations 1
GAMG:  Solving for ILambda_13_0, Initial residual = 0.017969701, Final residual = 1.2733737e-16, No Iterations 1
GAMG:  Solving for ILambda_14_0, Initial residual = 0.017969701, Final residual = 1.2360759e-16, No Iterations 1
GAMG:  Solving for ILambda_15_0, Initial residual = 0.023484494, Final residual = 4.2159577e-17, No Iterations 1
Radiation solver iter: 9
GAMG:  Solving for ILambda_0_0, Initial residual = 0.0039117167, Final residual = 5.0844468e-18, No Iterations 1
GAMG:  Solving for ILambda_1_0, Initial residual = 0.0098732963, Final residual = 1.5114817e-17, No Iterations 1
GAMG:  Solving for ILambda_2_0, Initial residual = 0.0098732963, Final residual = 1.58064e-17, No Iterations 1
GAMG:  Solving for ILambda_3_0, Initial residual = 0.0039117167, Final residual = 3.9027359e-18, No Iterations 1
GAMG:  Solving for ILambda_4_0, Initial residual = 0.022268694, Final residual = 1.4788404e-06, No Iterations 1
GAMG:  Solving for ILambda_5_0, Initial residual = 0.01661383, Final residual = 2.1924518e-06, No Iterations 1
GAMG:  Solving for ILambda_6_0, Initial residual = 0.01661383, Final residual = 2.1924518e-06, No Iterations 1
GAMG:  Solving for ILambda_7_0, Initial residual = 0.022268694, Final residual = 1.4788404e-06, No Iterations 1
GAMG:  Solving for ILambda_8_0, Initial residual = 0.0039126255, Final residual = 2.2323649e-08, No Iterations 1
GAMG:  Solving for ILambda_9_0, Initial residual = 0.0098740938, Final residual = 7.29633e-07, No Iterations 1
GAMG:  Solving for ILambda_10_0, Initial residual = 0.0098740938, Final residual = 7.29633e-07, No Iterations 1
GAMG:  Solving for ILambda_11_0, Initial residual = 0.0039126255, Final residual = 2.2323649e-08, No Iterations 1
GAMG:  Solving for ILambda_12_0, Initial residual = 0.0222674, Final residual = 3.4330218e-17, No Iterations 1
GAMG:  Solving for ILambda_13_0, Initial residual = 0.016618032, Final residual = 1.260502e-16, No Iterations 1
GAMG:  Solving for ILambda_14_0, Initial residual = 0.016618032, Final residual = 1.2975998e-16, No Iterations 1
GAMG:  Solving for ILambda_15_0, Initial residual = 0.0222674, Final residual = 3.0951258e-17, No Iterations 1
GAMG:  Solving for p_rgh, Initial residual = 0.0035622301, Final residual = 1.9907721e-06, No Iterations 4
time step continuity errors : sum local = 3.0299616e-05, global = 1.016939e-05, cumulative = 3.2106077e-05
ExecutionTime = 1.23 s  ClockTime = 1 s
Inflow      : -5.7788793e-08 [kg/s]
Outflow     : -4.9307528e-08 [kg/s]
EnergyInflow  : -0.017074404 [W]
EnergyOutflow : -0.014549703 [W]
EnergyBalance : 0.0025247012 [W]
rho max/avg/min : 1.201645 1.1744913 1.0279318
T   max/avg/min : 343.27398 300.94756 293.70005
P   max/avg/min : 101324.91 101316.16 101307.41
Prg max/avg/min : 101325 101324.8 101322.46
U   max/avg/min : 0.0020651491 0.00085805929 -0.00022325647
Prg max-min : 2.5416902
 
sngrad(rho) :1.1980734 0.36085003 -0.00011317362
 
Iteration Number = 11

DILUPBiCG:  Solving for Ux, Initial residual = 0.12278686, Final residual = 4.7699012e-06, No Iterations 2
DILUPBiCG:  Solving for Uy, Initial residual = 0.00011459756, Final residual = 2.4378479e-09, No Iterations 2
DILUPBiCG:  Solving for Uz, Initial residual = 0.15532827, Final residual = 0.00010996998, No Iterations 1
DILUPBiCG:  Solving for h, Initial residual = 0.048335225, Final residual = 3.9158207e-06, No Iterations 2
GAMG:  Solving for p_rgh, Initial residual = 0.004403356, Final residual = 1.0991712e-06, No Iterations 4
time step continuity errors : sum local = 1.853946e-05, global = 2.9791684e-06, cumulative = 3.5085245e-05
ExecutionTime = 1.26 s  ClockTime = 1 s
Inflow      : -4.4939702e-08 [kg/s]
Outflow     : -4.2455078e-08 [kg/s]
EnergyInflow  : -0.013277983 [W]
EnergyOutflow : -0.01251519 [W]
EnergyBalance : 0.00076279293 [W]
rho max/avg/min : 1.2016449 1.1722457 1.02535
T   max/avg/min : 344.13834 301.56531 293.70008
P   max/avg/min : 101324.91 101316.16 101307.41
Prg max/avg/min : 101325 101324.78 101322.42
U   max/avg/min : 0.0025497088 0.0011522378 -0.00024896615
Prg max-min : 2.5794204
 
sngrad(rho) :1.0491095 0.320191 -9.4705187e-05
 
Iteration Number = 12

DILUPBiCG:  Solving for Ux, Initial residual = 0.095148166, Final residual = 3.7003093e-06, No Iterations 2
DILUPBiCG:  Solving for Uy, Initial residual = 0.00016398803, Final residual = 2.9129619e-09, No Iterations 2
DILUPBiCG:  Solving for Uz, Initial residual = 0.15286313, Final residual = 0.00012894361, No Iterations 1
DILUPBiCG:  Solving for h, Initial residual = 0.03339157, Final residual = 4.3862377e-06, No Iterations 2
GAMG:  Solving for p_rgh, Initial residual = 0.0039463645, Final residual = 2.8345274e-06, No Iterations 4
time step continuity errors : sum local = 5.177811e-05, global = 2.0411277e-05, cumulative = 5.5496522e-05
ExecutionTime = 1.28 s  ClockTime = 1 s
Inflow      : -5.4679958e-08 [kg/s]
Outflow     : -3.7656966e-08 [kg/s]
EnergyInflow  : -0.016155861 [W]
EnergyOutflow : -0.011083513 [W]
EnergyBalance : 0.0050723476 [W]
rho max/avg/min : 1.2016446 1.1699872 1.0206753
T   max/avg/min : 345.71448 302.19281 293.70014
P   max/avg/min : 101324.91 101316.16 101307.41
Prg max/avg/min : 101325 101324.77 101322.35
U   max/avg/min : 0.0031277477 0.0015109886 -0.0003509217
Prg max-min : 2.6477106
 
sngrad(rho) :0.95802 0.32242927 -6.2184956e-05
 
Iteration Number = 13

DILUPBiCG:  Solving for Ux, Initial residual = 0.096501129, Final residual = 3.9512528e-06, No Iterations 2
DILUPBiCG:  Solving for Uy, Initial residual = 0.00022459822, Final residual = 3.63724e-09, No Iterations 2
DILUPBiCG:  Solving for Uz, Initial residual = 0.15196405, Final residual = 1.5086475e-06, No Iterations 2
DILUPBiCG:  Solving for h, Initial residual = 0.031649147, Final residual = 6.8574056e-06, No Iterations 2
GAMG:  Solving for p_rgh, Initial residual = 0.0039507954, Final residual = 1.7882957e-06, No Iterations 4
time step continuity errors : sum local = 3.5184879e-05, global = 6.4408012e-06, cumulative = 6.1937323e-05
ExecutionTime = 1.32 s  ClockTime = 1 s
Inflow      : -3.9067911e-08 [kg/s]
Outflow     : -3.3696286e-08 [kg/s]
EnergyInflow  : -0.011543091 [W]
EnergyOutflow : -0.0098934526 [W]
EnergyBalance : 0.0016496383 [W]
rho max/avg/min : 1.2016442 1.1677301 1.0156197
T   max/avg/min : 347.43539 302.82428 293.70024
P   max/avg/min : 101324.91 101316.16 101307.41
Prg max/avg/min : 101325 101324.75 101322.28
U   max/avg/min : 0.0038174749 0.0019476224 -0.00046142062
Prg max-min : 2.7216048
 
sngrad(rho) :0.89542236 0.32382971 -8.3566925e-06
 
Iteration Number = 14

DILUPBiCG:  Solving for Ux, Initial residual = 0.084526283, Final residual = 3.7220606e-06, No Iterations 2
DILUPBiCG:  Solving for Uy, Initial residual = 0.00032157383, Final residual = 6.2680251e-09, No Iterations 2
DILUPBiCG:  Solving for Uz, Initial residual = 0.15067195, Final residual = 1.5317477e-06, No Iterations 2
DILUPBiCG:  Solving for h, Initial residual = 0.030097164, Final residual = 8.0108473e-06, No Iterations 2
GAMG:  Solving for p_rgh, Initial residual = 0.0041087826, Final residual = 3.4977765e-06, No Iterations 4
time step continuity errors : sum local = 7.3797157e-05, global = 3.2684381e-05, cumulative = 9.4621704e-05
ExecutionTime = 1.35 s  ClockTime = 1 s
Inflow      : -5.857686e-08 [kg/s]
Outflow     : -3.1318106e-08 [kg/s]
EnergyInflow  : -0.017307248 [W]
EnergyOutflow : -0.0091628512 [W]
EnergyBalance : 0.0081443968 [W]
rho max/avg/min : 1.2016435 1.1654763 1.0105109
T   max/avg/min : 349.1919 303.45865 293.7004
P   max/avg/min : 101324.91 101316.16 101307.41
Prg max/avg/min : 101325 101324.73 101322.2
U   max/avg/min : 0.0046479586 0.0024665446 -0.00069548456
Prg max-min : 2.79615
 
sngrad(rho) :0.84808585 0.32535269 7.6594026e-05
 
Iteration Number = 15

DILUPBiCG:  Solving for Ux, Initial residual = 0.088055014, Final residual = 4.2675305e-06, No Iterations 2
DILUPBiCG:  Solving for Uy, Initial residual = 0.00041544427, Final residual = 9.3041968e-09, No Iterations 2
DILUPBiCG:  Solving for Uz, Initial residual = 0.14808811, Final residual = 2.3060823e-06, No Iterations 2
DILUPBiCG:  Solving for h, Initial residual = 0.028680936, Final residual = 1.1572139e-05, No Iterations 2
GAMG:  Solving for p_rgh, Initial residual = 0.0042842053, Final residual = 2.4457353e-06, No Iterations 4
time step continuity errors : sum local = 5.5018468e-05, global = 9.9041095e-06, cumulative = 0.00010452581
ExecutionTime = 1.38 s  ClockTime = 1 s
Inflow      : -3.7574153e-08 [kg/s]
Outflow     : -2.9314131e-08 [kg/s]
EnergyInflow  : -0.011101742 [W]
EnergyOutflow : -0.0085315897 [W]
EnergyBalance : 0.0025701522 [W]
rho max/avg/min : 1.2016422 1.1632255 1.0054509
T   max/avg/min : 350.94925 304.09571 293.70064
P   max/avg/min : 101324.91 101316.16 101307.41
Prg max/avg/min : 101325 101324.72 101322.13
U   max/avg/min : 0.0056391979 0.0030843387 -0.00093781659
Prg max-min : 2.870014
 
sngrad(rho) :0.811731 0.32802205 0.00020714326
 
Iteration Number = 16

DILUPBiCG:  Solving for Ux, Initial residual = 0.08102693, Final residual = 4.3974122e-06, No Iterations 2
DILUPBiCG:  Solving for Uy, Initial residual = 0.00060016388, Final residual = 1.5171162e-08, No Iterations 2
DILUPBiCG:  Solving for Uz, Initial residual = 0.14460684, Final residual = 2.1425023e-06, No Iterations 2
DILUPBiCG:  Solving for h, Initial residual = 0.027410519, Final residual = 1.4249192e-05, No Iterations 2
GAMG:  Solving for p_rgh, Initial residual = 0.0046146442, Final residual = 4.1037051e-06, No Iterations 4
time step continuity errors : sum local = 9.8033693e-05, global = 4.7059931e-05, cumulative = 0.00015158575
ExecutionTime = 1.42 s  ClockTime = 1 s
Inflow      : -6.754546e-08 [kg/s]
Outflow     : -2.8297506e-08 [kg/s]
EnergyInflow  : -0.01995713 [W]
EnergyOutflow : -0.0081762766 [W]
EnergyBalance : 0.011780854 [W]
rho max/avg/min : 1.2016405 1.160979 1.0004787
T   max/avg/min : 352.69342 304.73497 293.701
P   max/avg/min : 101324.91 101316.16 101307.41
Prg max/avg/min : 101325 101324.7 101322.06
U   max/avg/min : 0.0068121463 0.0038006307 -0.001355387
Prg max-min : 2.9424391
 
sngrad(rho) :0.78313212 0.33096829 0.00040475854
 
Iteration Number = 17

DILUPBiCG:  Solving for Ux, Initial residual = 0.08544841, Final residual = 5.419419e-06, No Iterations 2
DILUPBiCG:  Solving for Uy, Initial residual = 0.00075897088, Final residual = 2.6011556e-08, No Iterations 2
DILUPBiCG:  Solving for Uz, Initial residual = 0.13997102, Final residual = 3.0627403e-06, No Iterations 2
DILUPBiCG:  Solving for h, Initial residual = 0.02622506, Final residual = 1.906223e-05, No Iterations 2
GAMG:  Solving for p_rgh, Initial residual = 0.0048518291, Final residual = 3.182644e-06, No Iterations 4
time step continuity errors : sum local = 8.035647e-05, global = 1.3815895e-05, cumulative = 0.00016540164
ExecutionTime = 1.45 s  ClockTime = 1 s
Inflow      : -3.7329588e-08 [kg/s]
Outflow     : -2.5807139e-08 [kg/s]
EnergyInflow  : -0.011029482 [W]
EnergyOutflow : -0.0073633624 [W]
EnergyBalance : 0.0036661198 [W]
rho max/avg/min : 1.2016375 1.1587366 0.99561111
T   max/avg/min : 354.41775 305.3763 293.70155
P   max/avg/min : 101324.91 101316.16 101307.41
Prg max/avg/min : 101325 101324.69 101321.99
U   max/avg/min : 0.0081985386 0.004636652 -0.0017659346
Prg max-min : 3.0133657
 
sngrad(rho) :0.7590823 0.33534326 0.00070519323
 
Iteration Number = 18

DILUPBiCG:  Solving for Ux, Initial residual = 0.081315276, Final residual = 6.1984497e-06, No Iterations 2
DILUPBiCG:  Solving for Uy, Initial residual = 0.00097539396, Final residual = 4.7692461e-08, No Iterations 2
DILUPBiCG:  Solving for Uz, Initial residual = 0.13357175, Final residual = 2.5701028e-06, No Iterations 2
DILUPBiCG:  Solving for h, Initial residual = 0.025127869, Final residual = 1.9166278e-05, No Iterations 3
GAMG:  Solving for p_rgh, Initial residual = 0.0053266004, Final residual = 4.8419338e-06, No Iterations 4
time step continuity errors : sum local = 0.0001288143, global = 6.3088071e-05, cumulative = 0.00022848971
ExecutionTime = 1.48 s  ClockTime = 1 s
Inflow      : -7.3046133e-08 [kg/s]
Outflow     : -2.0430719e-08 [kg/s]
EnergyInflow  : -0.021582371 [W]
EnergyOutflow : -0.0056664989 [W]
EnergyBalance : 0.015915872 [W]
rho max/avg/min : 1.2016321 1.1564952 0.99085182
T   max/avg/min : 356.1201 306.0204 293.70266
P   max/avg/min : 101324.91 101316.16 101307.41
Prg max/avg/min : 101325 101324.67 101321.92
U   max/avg/min : 0.009823695 0.0055843775 -0.0023975779
Prg max-min : 3.0825964
 
sngrad(rho) :0.73836894 0.34083559 0.0013125971
 
Iteration Number = 19

DILUPBiCG:  Solving for Ux, Initial residual = 0.087207163, Final residual = 7.9812881e-06, No Iterations 2
DILUPBiCG:  Solving for Uy, Initial residual = 0.0011685872, Final residual = 6.7408135e-08, No Iterations 2
DILUPBiCG:  Solving for Uz, Initial residual = 0.12711991, Final residual = 3.4201382e-06, No Iterations 2
DILUPBiCG:  Solving for h, Initial residual = 0.024102129, Final residual = 1.0334794e-05, No Iterations 4
GAMG:  Solving for p_rgh, Initial residual = 0.0055661951, Final residual = 4.1050941e-06, No Iterations 4
time step continuity errors : sum local = 0.0001145381, global = 1.8762291e-05, cumulative = 0.000247252
ExecutionTime = 1.51 s  ClockTime = 1 s
Inflow      : -2.4076515e-08 [kg/s]
Outflow     : -8.4287761e-09 [kg/s]
EnergyInflow  : -0.0071137002 [W]
EnergyOutflow : -0.0019674671 [W]
EnergyBalance : 0.0051462331 [W]
rho max/avg/min : 1.201623 1.1542605 0.98620612
T   max/avg/min : 357.79767 306.66573 293.70422
P   max/avg/min : 101324.91 101316.16 101307.41
Prg max/avg/min : 101325 101324.65 101321.85
U   max/avg/min : 0.011727027 0.0066732489 -0.0030094411
Prg max-min : 3.1504351
 
sngrad(rho) :0.71956769 0.34709625 0.0021593651
 
Iteration Number = 20

DILUPBiCG:  Solving for Ux, Initial residual = 0.085807291, Final residual = 9.8889761e-06, No Iterations 2
DILUPBiCG:  Solving for Uy, Initial residual = 0.0015795693, Final residual = 1.1495738e-07, No Iterations 2
DILUPBiCG:  Solving for Uz, Initial residual = 0.11888022, Final residual = 2.9163254e-06, No Iterations 2
DILUPBiCG:  Solving for h, Initial residual = 0.023141856, Final residual = 2.0158441e-05, No Iterations 3
Radiation solver iter: 0
GAMG:  Solving for ILambda_0_0, Initial residual = 0.0039770211, Final residual = 4.9839818e-18, No Iterations 1
GAMG:  Solving for ILambda_1_0, Initial residual = 0.010674879, Final residual = 1.6253164e-17, No Iterations 1
GAMG:  Solving for ILambda_2_0, Initial residual = 0.010674879, Final residual = 1.5595203e-17, No Iterations 1
GAMG:  Solving for ILambda_3_0, Initial residual = 0.0039770211, Final residual = 3.9126687e-18, No Iterations 1
GAMG:  Solving for ILambda_4_0, Initial residual = 0.020930842, Final residual = 1.382308e-06, No Iterations 1
GAMG:  Solving for ILambda_5_0, Initial residual = 0.015514994, Final residual = 1.7206946e-06, No Iterations 1
GAMG:  Solving for ILambda_6_0, Initial residual = 0.015514994, Final residual = 1.7206946e-06, No Iterations 1
GAMG:  Solving for ILambda_7_0, Initial residual = 0.020930842, Final residual = 1.382308e-06, No Iterations 1
GAMG:  Solving for ILambda_8_0, Initial residual = 0.0039841711, Final residual = 2.1475912e-08, No Iterations 1
GAMG:  Solving for ILambda_9_0, Initial residual = 0.010680053, Final residual = 8.1631566e-07, No Iterations 1
GAMG:  Solving for ILambda_10_0, Initial residual = 0.010680053, Final residual = 8.1631566e-07, No Iterations 1
GAMG:  Solving for ILambda_11_0, Initial residual = 0.0039841711, Final residual = 2.1475912e-08, No Iterations 1
GAMG:  Solving for ILambda_12_0, Initial residual = 0.020934598, Final residual = 3.1385609e-17, No Iterations 1
GAMG:  Solving for ILambda_13_0, Initial residual = 0.015525334, Final residual = 1.4085004e-16, No Iterations 1
GAMG:  Solving for ILambda_14_0, Initial residual = 0.015525334, Final residual = 1.3421238e-16, No Iterations 1
GAMG:  Solving for ILambda_15_0, Initial residual = 0.020934598, Final residual = 3.2188538e-17, No Iterations 1
Radiation solver iter: 1
GAMG:  Solving for ILambda_0_0, Initial residual = 0.0038065666, Final residual = 3.6892778e-18, No Iterations 1
GAMG:  Solving for ILambda_1_0, Initial residual = 0.010848923, Final residual = 1.7597664e-17, No Iterations 1
GAMG:  Solving for ILambda_2_0, Initial residual = 0.010848923, Final residual = 1.7569378e-17, No Iterations 1
GAMG:  Solving for ILambda_3_0, Initial residual = 0.0038065666, Final residual = 5.0801735e-18, No Iterations 1
GAMG:  Solving for ILambda_4_0, Initial residual = 0.019767666, Final residual = 1.296762e-06, No Iterations 1
GAMG:  Solving for ILambda_5_0, Initial residual = 0.014532717, Final residual = 1.514276e-06, No Iterations 1
GAMG:  Solving for ILambda_6_0, Initial residual = 0.014532717, Final residual = 1.514276e-06, No Iterations 1
GAMG:  Solving for ILambda_7_0, Initial residual = 0.019767666, Final residual = 1.296762e-06, No Iterations 1
GAMG:  Solving for ILambda_8_0, Initial residual = 0.0038139413, Final residual = 2.0725601e-08, No Iterations 1
GAMG:  Solving for ILambda_9_0, Initial residual = 0.010854232, Final residual = 9.0606205e-07, No Iterations 1
GAMG:  Solving for ILambda_10_0, Initial residual = 0.010854232, Final residual = 9.0606205e-07, No Iterations 1
GAMG:  Solving for ILambda_11_0, Initial residual = 0.0038139413, Final residual = 2.0725601e-08, No Iterations 1
GAMG:  Solving for ILambda_12_0, Initial residual = 0.019772298, Final residual = 3.411474e-17, No Iterations 1
GAMG:  Solving for ILambda_13_0, Initial residual = 0.014541308, Final residual = 1.4409407e-16, No Iterations 1
GAMG:  Solving for ILambda_14_0, Initial residual = 0.014541308, Final residual = 1.4199626e-16, No Iterations 1
GAMG:  Solving for ILambda_15_0, Initial residual = 0.019772298, Final residual = 2.9259766e-17, No Iterations 1
Radiation solver iter: 2
GAMG:  Solving for ILambda_0_0, Initial residual = 0.0035411659, Final residual = 3.5184071e-18, No Iterations 1
GAMG:  Solving for ILambda_1_0, Initial residual = 0.011161891, Final residual = 1.865122e-17, No Iterations 1
GAMG:  Solving for ILambda_2_0, Initial residual = 0.011161891, Final residual = 1.9379182e-17, No Iterations 1
GAMG:  Solving for ILambda_3_0, Initial residual = 0.0035411659, Final residual = 4.0767604e-18, No Iterations 1
GAMG:  Solving for ILambda_4_0, Initial residual = 0.018803037, Final residual = 1.2150471e-06, No Iterations 1
GAMG:  Solving for ILambda_5_0, Initial residual = 0.013608818, Final residual = 1.1982107e-06, No Iterations 1
GAMG:  Solving for ILambda_6_0, Initial residual = 0.013608818, Final residual = 1.1982107e-06, No Iterations 1
GAMG:  Solving for ILambda_7_0, Initial residual = 0.018803037, Final residual = 1.2150471e-06, No Iterations 1
GAMG:  Solving for ILambda_8_0, Initial residual = 0.003548059, Final residual = 1.9765684e-08, No Iterations 1
GAMG:  Solving for ILambda_9_0, Initial residual = 0.011166898, Final residual = 1.0061031e-06, No Iterations 1
GAMG:  Solving for ILambda_10_0, Initial residual = 0.011166898, Final residual = 1.0061031e-06, No Iterations 1
GAMG:  Solving for ILambda_11_0, Initial residual = 0.003548059, Final residual = 1.9765684e-08, No Iterations 1
GAMG:  Solving for ILambda_12_0, Initial residual = 0.01880674, Final residual = 2.6980535e-17, No Iterations 1
GAMG:  Solving for ILambda_13_0, Initial residual = 0.013614556, Final residual = 1.5239233e-16, No Iterations 1
GAMG:  Solving for ILambda_14_0, Initial residual = 0.013614556, Final residual = 1.4753289e-16, No Iterations 1
GAMG:  Solving for ILambda_15_0, Initial residual = 0.01880674, Final residual = 3.1998361e-17, No Iterations 1
Radiation solver iter: 3
GAMG:  Solving for ILambda_0_0, Initial residual = 0.0033737566, Final residual = 3.6534301e-18, No Iterations 1
GAMG:  Solving for ILambda_1_0, Initial residual = 0.011592972, Final residual = 1.982149e-17, No Iterations 1
GAMG:  Solving for ILambda_2_0, Initial residual = 0.011592972, Final residual = 1.9816283e-17, No Iterations 1
GAMG:  Solving for ILambda_3_0, Initial residual = 0.0033737566, Final residual = 4.6292171e-18, No Iterations 1
GAMG:  Solving for ILambda_4_0, Initial residual = 0.017903882, Final residual = 1.1288455e-06, No Iterations 1
GAMG:  Solving for ILambda_5_0, Initial residual = 0.012814222, Final residual = 9.3901814e-07, No Iterations 1
GAMG:  Solving for ILambda_6_0, Initial residual = 0.012814222, Final residual = 9.3901814e-07, No Iterations 1
GAMG:  Solving for ILambda_7_0, Initial residual = 0.017903882, Final residual = 1.1288455e-06, No Iterations 1
GAMG:  Solving for ILambda_8_0, Initial residual = 0.0033801979, Final residual = 1.9085565e-08, No Iterations 1
GAMG:  Solving for ILambda_9_0, Initial residual = 0.011597808, Final residual = 1.1269904e-06, No Iterations 1
GAMG:  Solving for ILambda_10_0, Initial residual = 0.011597808, Final residual = 1.1269904e-06, No Iterations 1
GAMG:  Solving for ILambda_11_0, Initial residual = 0.0033801979, Final residual = 1.9085565e-08, No Iterations 1
GAMG:  Solving for ILambda_12_0, Initial residual = 0.017906735, Final residual = 3.0206352e-17, No Iterations 1
GAMG:  Solving for ILambda_13_0, Initial residual = 0.012823379, Final residual = 1.4921058e-16, No Iterations 1
GAMG:  Solving for ILambda_14_0, Initial residual = 0.012823379, Final residual = 1.6010737e-16, No Iterations 1
GAMG:  Solving for ILambda_15_0, Initial residual = 0.017906735, Final residual = 3.0678465e-17, No Iterations 1
Radiation solver iter: 4
GAMG:  Solving for ILambda_0_0, Initial residual = 0.0032239173, Final residual = 4.0878884e-18, No Iterations 1
GAMG:  Solving for ILambda_1_0, Initial residual = 0.012048985, Final residual = 2.1160937e-17, No Iterations 1
GAMG:  Solving for ILambda_2_0, Initial residual = 0.012048985, Final residual = 2.113344e-17, No Iterations 1
GAMG:  Solving for ILambda_3_0, Initial residual = 0.0032239173, Final residual = 4.3352172e-18, No Iterations 1
GAMG:  Solving for ILambda_4_0, Initial residual = 0.017016125, Final residual = 1.0362488e-06, No Iterations 1
GAMG:  Solving for ILambda_5_0, Initial residual = 0.012157433, Final residual = 7.7864523e-07, No Iterations 1
GAMG:  Solving for ILambda_6_0, Initial residual = 0.012157433, Final residual = 7.7864523e-07, No Iterations 1
GAMG:  Solving for ILambda_7_0, Initial residual = 0.017016125, Final residual = 1.0362488e-06, No Iterations 1
GAMG:  Solving for ILambda_8_0, Initial residual = 0.003229954, Final residual = 1.8402808e-08, No Iterations 1
GAMG:  Solving for ILambda_9_0, Initial residual = 0.012053628, Final residual = 1.2706107e-06, No Iterations 1
GAMG:  Solving for ILambda_10_0, Initial residual = 0.012053628, Final residual = 1.2706107e-06, No Iterations 1
GAMG:  Solving for ILambda_11_0, Initial residual = 0.003229954, Final residual = 1.8402808e-08, No Iterations 1
GAMG:  Solving for ILambda_12_0, Initial residual = 0.017018526, Final residual = 4.0330153e-17, No Iterations 1
GAMG:  Solving for ILambda_13_0, Initial residual = 0.012164575, Final residual = 1.6450634e-16, No Iterations 1
GAMG:  Solving for ILambda_14_0, Initial residual = 0.012164575, Final residual = 1.5344056e-16, No Iterations 1
GAMG:  Solving for ILambda_15_0, Initial residual = 0.017018526, Final residual = 4.0690199e-17, No Iterations 1
Radiation solver iter: 5
GAMG:  Solving for ILambda_0_0, Initial residual = 0.0030927713, Final residual = 5.3328478e-18, No Iterations 1
GAMG:  Solving for ILambda_1_0, Initial residual = 0.012583449, Final residual = 2.2304358e-17, No Iterations 1
GAMG:  Solving for ILambda_2_0, Initial residual = 0.012583449, Final residual = 2.2511946e-17, No Iterations 1
GAMG:  Solving for ILambda_3_0, Initial residual = 0.0030927713, Final residual = 4.1666624e-18, No Iterations 1
GAMG:  Solving for ILambda_4_0, Initial residual = 0.016315783, Final residual = 9.3802232e-07, No Iterations 1
GAMG:  Solving for ILambda_5_0, Initial residual = 0.011546714, Final residual = 6.1491065e-07, No Iterations 1
GAMG:  Solving for ILambda_6_0, Initial residual = 0.011546714, Final residual = 6.1491065e-07, No Iterations 1
GAMG:  Solving for ILambda_7_0, Initial residual = 0.016315783, Final residual = 9.3802232e-07, No Iterations 1
GAMG:  Solving for ILambda_8_0, Initial residual = 0.0030984586, Final residual = 1.7688359e-08, No Iterations 1
GAMG:  Solving for ILambda_9_0, Initial residual = 0.012588118, Final residual = 1.441896e-06, No Iterations 1
GAMG:  Solving for ILambda_10_0, Initial residual = 0.012588118, Final residual = 1.441896e-06, No Iterations 1
GAMG:  Solving for ILambda_11_0, Initial residual = 0.0030984586, Final residual = 1.7688359e-08, No Iterations 1
GAMG:  Solving for ILambda_12_0, Initial residual = 0.016318831, Final residual = 4.0339383e-17, No Iterations 1
GAMG:  Solving for ILambda_13_0, Initial residual = 0.01155274, Final residual = 1.7037667e-16, No Iterations 1
GAMG:  Solving for ILambda_14_0, Initial residual = 0.01155274, Final residual = 1.7394431e-16, No Iterations 1
GAMG:  Solving for ILambda_15_0, Initial residual = 0.016318831, Final residual = 3.7700231e-17, No Iterations 1
Radiation solver iter: 6
GAMG:  Solving for ILambda_0_0, Initial residual = 0.0029806034, Final residual = 4.4651316e-18, No Iterations 1
GAMG:  Solving for ILambda_1_0, Initial residual = 0.013183498, Final residual = 2.3633926e-17, No Iterations 1
GAMG:  Solving for ILambda_2_0, Initial residual = 0.013183498, Final residual = 2.2765343e-17, No Iterations 1
GAMG:  Solving for ILambda_3_0, Initial residual = 0.0029806034, Final residual = 4.4868096e-18, No Iterations 1
GAMG:  Solving for ILambda_4_0, Initial residual = 0.015784336, Final residual = 8.790312e-07, No Iterations 1
GAMG:  Solving for ILambda_5_0, Initial residual = 0.011015115, Final residual = 4.9150483e-07, No Iterations 1
GAMG:  Solving for ILambda_6_0, Initial residual = 0.011015115, Final residual = 4.9150483e-07, No Iterations 1
GAMG:  Solving for ILambda_7_0, Initial residual = 0.015784336, Final residual = 8.790312e-07, No Iterations 1
GAMG:  Solving for ILambda_8_0, Initial residual = 0.0029859729, Final residual = 1.6963476e-08, No Iterations 1
GAMG:  Solving for ILambda_9_0, Initial residual = 0.013188224, Final residual = 1.6532457e-06, No Iterations 1
GAMG:  Solving for ILambda_10_0, Initial residual = 0.013188224, Final residual = 1.6532457e-06, No Iterations 1
GAMG:  Solving for ILambda_11_0, Initial residual = 0.0029859729, Final residual = 1.6963476e-08, No Iterations 1
GAMG:  Solving for ILambda_12_0, Initial residual = 0.015787089, Final residual = 3.9298908e-17, No Iterations 1
GAMG:  Solving for ILambda_13_0, Initial residual = 0.011020995, Final residual = 1.786717e-16, No Iterations 1
GAMG:  Solving for ILambda_14_0, Initial residual = 0.011020995, Final residual = 1.7928781e-16, No Iterations 1
GAMG:  Solving for ILambda_15_0, Initial residual = 0.015787089, Final residual = 3.74838e-17, No Iterations 1
Radiation solver iter: 7
GAMG:  Solving for ILambda_0_0, Initial residual = 0.0028776732, Final residual = 4.5461087e-18, No Iterations 1
GAMG:  Solving for ILambda_1_0, Initial residual = 0.013865212, Final residual = 2.4998343e-17, No Iterations 1
GAMG:  Solving for ILambda_2_0, Initial residual = 0.013865212, Final residual = 2.4755068e-17, No Iterations 1
GAMG:  Solving for ILambda_3_0, Initial residual = 0.0028776732, Final residual = 4.512732e-18, No Iterations 1
GAMG:  Solving for ILambda_4_0, Initial residual = 0.015234558, Final residual = 8.2846469e-07, No Iterations 1
GAMG:  Solving for ILambda_5_0, Initial residual = 0.010564676, Final residual = 4.2049571e-07, No Iterations 1
GAMG:  Solving for ILambda_6_0, Initial residual = 0.010564676, Final residual = 4.2049571e-07, No Iterations 1
GAMG:  Solving for ILambda_7_0, Initial residual = 0.015234558, Final residual = 8.2846469e-07, No Iterations 1
GAMG:  Solving for ILambda_8_0, Initial residual = 0.0028827413, Final residual = 1.6295217e-08, No Iterations 1
GAMG:  Solving for ILambda_9_0, Initial residual = 0.013870005, Final residual = 1.9112224e-06, No Iterations 1
GAMG:  Solving for ILambda_10_0, Initial residual = 0.013870005, Final residual = 1.9112224e-06, No Iterations 1
GAMG:  Solving for ILambda_11_0, Initial residual = 0.0028827413, Final residual = 1.6295217e-08, No Iterations 1
GAMG:  Solving for ILambda_12_0, Initial residual = 0.015236691, Final residual = 3.2049789e-17, No Iterations 1
GAMG:  Solving for ILambda_13_0, Initial residual = 0.010572219, Final residual = 1.9558221e-16, No Iterations 1
GAMG:  Solving for ILambda_14_0, Initial residual = 0.010572219, Final residual = 1.9033481e-16, No Iterations 1
GAMG:  Solving for ILambda_15_0, Initial residual = 0.015236691, Final residual = 3.7341689e-17, No Iterations 1
Radiation solver iter: 8
GAMG:  Solving for ILambda_0_0, Initial residual = 0.0027814146, Final residual = 5.0999615e-18, No Iterations 1
GAMG:  Solving for ILambda_1_0, Initial residual = 0.014623879, Final residual = 2.5882609e-17, No Iterations 1
GAMG:  Solving for ILambda_2_0, Initial residual = 0.014623879, Final residual = 2.6894462e-17, No Iterations 1
GAMG:  Solving for ILambda_3_0, Initial residual = 0.0027814146, Final residual = 4.6671328e-18, No Iterations 1
GAMG:  Solving for ILambda_4_0, Initial residual = 0.014665327, Final residual = 7.6153465e-07, No Iterations 1
GAMG:  Solving for ILambda_5_0, Initial residual = 0.010194523, Final residual = 3.2635093e-07, No Iterations 1
GAMG:  Solving for ILambda_6_0, Initial residual = 0.010194523, Final residual = 3.2635093e-07, No Iterations 1
GAMG:  Solving for ILambda_7_0, Initial residual = 0.014665327, Final residual = 7.6153465e-07, No Iterations 1
GAMG:  Solving for ILambda_8_0, Initial residual = 0.002786299, Final residual = 1.5765273e-08, No Iterations 1
GAMG:  Solving for ILambda_9_0, Initial residual = 0.014628637, Final residual = 2.1885394e-06, No Iterations 1
GAMG:  Solving for ILambda_10_0, Initial residual = 0.014628637, Final residual = 2.1885394e-06, No Iterations 1
GAMG:  Solving for ILambda_11_0, Initial residual = 0.002786299, Final residual = 1.5765273e-08, No Iterations 1
GAMG:  Solving for ILambda_12_0, Initial residual = 0.0146671, Final residual = 3.4613815e-17, No Iterations 1
GAMG:  Solving for ILambda_13_0, Initial residual = 0.010201253, Final residual = 2.0042412e-16, No Iterations 1
GAMG:  Solving for ILambda_14_0, Initial residual = 0.010201253, Final residual = 2.0551166e-16, No Iterations 1
GAMG:  Solving for ILambda_15_0, Initial residual = 0.0146671, Final residual = 3.158015e-17, No Iterations 1
Radiation solver iter: 9
GAMG:  Solving for ILambda_0_0, Initial residual = 0.0026947173, Final residual = 5.4042529e-18, No Iterations 1
GAMG:  Solving for ILambda_1_0, Initial residual = 0.015478238, Final residual = 2.6980796e-17, No Iterations 1
GAMG:  Solving for ILambda_2_0, Initial residual = 0.015478238, Final residual = 2.6959186e-17, No Iterations 1
GAMG:  Solving for ILambda_3_0, Initial residual = 0.0026947173, Final residual = 6.0927895e-18, No Iterations 1
GAMG:  Solving for ILambda_4_0, Initial residual = 0.014081589, Final residual = 7.1292901e-07, No Iterations 1
GAMG:  Solving for ILambda_5_0, Initial residual = 0.009880506, Final residual = 2.7142798e-07, No Iterations 1
GAMG:  Solving for ILambda_6_0, Initial residual = 0.009880506, Final residual = 2.7142798e-07, No Iterations 1
GAMG:  Solving for ILambda_7_0, Initial residual = 0.014081589, Final residual = 7.1292901e-07, No Iterations 1
GAMG:  Solving for ILambda_8_0, Initial residual = 0.002699494, Final residual = 1.5287045e-08, No Iterations 1
[...]
rho max/avg/min : 1.2016457 1.0899898 0.84244443
T   max/avg/min : 418.85521 328.45117 293.68579
P   max/avg/min : 101324.91 101316.16 101307.4
Prg max/avg/min : 101325 101324.12 101319.74
U   max/avg/min : 1.2055564 0.33105911 0
Prg max-min : 5.256219
 
sngrad(rho) :-0.00013957766 -0.00021012511 -0.0003203536
 
Iteration Number = 760

DILUPBiCG:  Solving for Ux, Initial residual = 4.9647488e-06, Final residual = 5.9648659e-10, No Iterations 2
DILUPBiCG:  Solving for Uy, Initial residual = 0.014770327, Final residual = 7.0412322e-06, No Iterations 2
DILUPBiCG:  Solving for Uz, Initial residual = 4.0696515e-06, Final residual = 1.2758177e-09, No Iterations 2
DILUPBiCG:  Solving for h, Initial residual = 9.7095025e-07, Final residual = 5.0320136e-09, No Iterations 3
Radiation solver iter: 0
GAMG:  Solving for ILambda_0_0, Initial residual = 9.9765238e-05, Final residual = 9.9765238e-05, No Iterations 0
GAMG:  Solving for ILambda_1_0, Initial residual = 9.2096764e-05, Final residual = 9.2096764e-05, No Iterations 0
GAMG:  Solving for ILambda_2_0, Initial residual = 9.2096764e-05, Final residual = 9.2096764e-05, No Iterations 0
GAMG:  Solving for ILambda_3_0, Initial residual = 9.9765238e-05, Final residual = 9.9765238e-05, No Iterations 0
GAMG:  Solving for ILambda_4_0, Initial residual = 9.4146751e-05, Final residual = 9.4146751e-05, No Iterations 0
GAMG:  Solving for ILambda_5_0, Initial residual = 9.5093088e-05, Final residual = 9.5093088e-05, No Iterations 0
GAMG:  Solving for ILambda_6_0, Initial residual = 9.5093089e-05, Final residual = 9.5093089e-05, No Iterations 0
GAMG:  Solving for ILambda_7_0, Initial residual = 9.4146751e-05, Final residual = 9.4146751e-05, No Iterations 0
GAMG:  Solving for ILambda_8_0, Initial residual = 9.9819728e-05, Final residual = 9.9819728e-05, No Iterations 0
GAMG:  Solving for ILambda_9_0, Initial residual = 9.7804504e-05, Final residual = 9.7804504e-05, No Iterations 0
GAMG:  Solving for ILambda_10_0, Initial residual = 9.7804504e-05, Final residual = 9.7804504e-05, No Iterations 0
GAMG:  Solving for ILambda_11_0, Initial residual = 9.9819728e-05, Final residual = 9.9819728e-05, No Iterations 0
GAMG:  Solving for ILambda_12_0, Initial residual = 9.9853746e-05, Final residual = 9.9853746e-05, No Iterations 0
GAMG:  Solving for ILambda_13_0, Initial residual = 8.8471805e-05, Final residual = 8.8471805e-05, No Iterations 0
GAMG:  Solving for ILambda_14_0, Initial residual = 8.8471805e-05, Final residual = 8.8471805e-05, No Iterations 0
GAMG:  Solving for ILambda_15_0, Initial residual = 9.9853746e-05, Final residual = 9.9853746e-05, No Iterations 0
Radiation solver iter: 1
GAMG:  Solving for ILambda_0_0, Initial residual = 9.9794772e-05, Final residual = 9.9794772e-05, No Iterations 0
GAMG:  Solving for ILambda_1_0, Initial residual = 9.20968e-05, Final residual = 9.20968e-05, No Iterations 0
GAMG:  Solving for ILambda_2_0, Initial residual = 9.20968e-05, Final residual = 9.20968e-05, No Iterations 0
GAMG:  Solving for ILambda_3_0, Initial residual = 9.9794772e-05, Final residual = 9.9794772e-05, No Iterations 0
GAMG:  Solving for ILambda_4_0, Initial residual = 9.4159406e-05, Final residual = 9.4159406e-05, No Iterations 0
GAMG:  Solving for ILambda_5_0, Initial residual = 9.5151243e-05, Final residual = 9.5151243e-05, No Iterations 0
GAMG:  Solving for ILambda_6_0, Initial residual = 9.5151243e-05, Final residual = 9.5151243e-05, No Iterations 0
GAMG:  Solving for ILambda_7_0, Initial residual = 9.4159406e-05, Final residual = 9.4159406e-05, No Iterations 0
GAMG:  Solving for ILambda_8_0, Initial residual = 9.9853888e-05, Final residual = 9.9853888e-05, No Iterations 0
GAMG:  Solving for ILambda_9_0, Initial residual = 9.8037309e-05, Final residual = 9.8037309e-05, No Iterations 0
GAMG:  Solving for ILambda_10_0, Initial residual = 9.8037309e-05, Final residual = 9.8037309e-05, No Iterations 0
GAMG:  Solving for ILambda_11_0, Initial residual = 9.9853888e-05, Final residual = 9.9853888e-05, No Iterations 0
GAMG:  Solving for ILambda_12_0, Initial residual = 9.985412e-05, Final residual = 9.985412e-05, No Iterations 0
GAMG:  Solving for ILambda_13_0, Initial residual = 8.9394233e-05, Final residual = 8.9394233e-05, No Iterations 0
GAMG:  Solving for ILambda_14_0, Initial residual = 8.9394233e-05, Final residual = 8.9394233e-05, No Iterations 0
GAMG:  Solving for ILambda_15_0, Initial residual = 9.985412e-05, Final residual = 9.985412e-05, No Iterations 0
Radiation solver iter: 2
GAMG:  Solving for ILambda_0_0, Initial residual = 9.9794772e-05, Final residual = 9.9794772e-05, No Iterations 0
GAMG:  Solving for ILambda_1_0, Initial residual = 9.20968e-05, Final residual = 9.20968e-05, No Iterations 0
GAMG:  Solving for ILambda_2_0, Initial residual = 9.20968e-05, Final residual = 9.20968e-05, No Iterations 0
GAMG:  Solving for ILambda_3_0, Initial residual = 9.9794772e-05, Final residual = 9.9794772e-05, No Iterations 0
GAMG:  Solving for ILambda_4_0, Initial residual = 9.4159406e-05, Final residual = 9.4159406e-05, No Iterations 0
GAMG:  Solving for ILambda_5_0, Initial residual = 9.5151243e-05, Final residual = 9.5151243e-05, No Iterations 0
GAMG:  Solving for ILambda_6_0, Initial residual = 9.5151243e-05, Final residual = 9.5151243e-05, No Iterations 0
GAMG:  Solving for ILambda_7_0, Initial residual = 9.4159406e-05, Final residual = 9.4159406e-05, No Iterations 0
GAMG:  Solving for ILambda_8_0, Initial residual = 9.9853888e-05, Final residual = 9.9853888e-05, No Iterations 0
GAMG:  Solving for ILambda_9_0, Initial residual = 9.8037309e-05, Final residual = 9.8037309e-05, No Iterations 0
GAMG:  Solving for ILambda_10_0, Initial residual = 9.8037309e-05, Final residual = 9.8037309e-05, No Iterations 0
GAMG:  Solving for ILambda_11_0, Initial residual = 9.9853888e-05, Final residual = 9.9853888e-05, No Iterations 0
GAMG:  Solving for ILambda_12_0, Initial residual = 9.985412e-05, Final residual = 9.985412e-05, No Iterations 0
GAMG:  Solving for ILambda_13_0, Initial residual = 8.9394233e-05, Final residual = 8.9394233e-05, No Iterations 0
GAMG:  Solving for ILambda_14_0, Initial residual = 8.9394233e-05, Final residual = 8.9394233e-05, No Iterations 0
GAMG:  Solving for ILambda_15_0, Initial residual = 9.985412e-05, Final residual = 9.985412e-05, No Iterations 0
Radiation solver iter: 3
GAMG:  Solving for ILambda_0_0, Initial residual = 9.9794772e-05, Final residual = 9.9794772e-05, No Iterations 0
GAMG:  Solving for ILambda_1_0, Initial residual = 9.20968e-05, Final residual = 9.20968e-05, No Iterations 0
GAMG:  Solving for ILambda_2_0, Initial residual = 9.20968e-05, Final residual = 9.20968e-05, No Iterations 0
GAMG:  Solving for ILambda_3_0, Initial residual = 9.9794772e-05, Final residual = 9.9794772e-05, No Iterations 0
GAMG:  Solving for ILambda_4_0, Initial residual = 9.4159406e-05, Final residual = 9.4159406e-05, No Iterations 0
GAMG:  Solving for ILambda_5_0, Initial residual = 9.5151243e-05, Final residual = 9.5151243e-05, No Iterations 0
GAMG:  Solving for ILambda_6_0, Initial residual = 9.5151243e-05, Final residual = 9.5151243e-05, No Iterations 0
GAMG:  Solving for ILambda_7_0, Initial residual = 9.4159406e-05, Final residual = 9.4159406e-05, No Iterations 0
GAMG:  Solving for ILambda_8_0, Initial residual = 9.9853888e-05, Final residual = 9.9853888e-05, No Iterations 0
GAMG:  Solving for ILambda_9_0, Initial residual = 9.8037309e-05, Final residual = 9.8037309e-05, No Iterations 0
GAMG:  Solving for ILambda_10_0, Initial residual = 9.8037309e-05, Final residual = 9.8037309e-05, No Iterations 0
GAMG:  Solving for ILambda_11_0, Initial residual = 9.9853888e-05, Final residual = 9.9853888e-05, No Iterations 0
GAMG:  Solving for ILambda_12_0, Initial residual = 9.985412e-05, Final residual = 9.985412e-05, No Iterations 0
GAMG:  Solving for ILambda_13_0, Initial residual = 8.9394233e-05, Final residual = 8.9394233e-05, No Iterations 0
GAMG:  Solving for ILambda_14_0, Initial residual = 8.9394233e-05, Final residual = 8.9394233e-05, No Iterations 0
GAMG:  Solving for ILambda_15_0, Initial residual = 9.985412e-05, Final residual = 9.985412e-05, No Iterations 0
Radiation solver iter: 4
GAMG:  Solving for ILambda_0_0, Initial residual = 9.9794772e-05, Final residual = 9.9794772e-05, No Iterations 0
GAMG:  Solving for ILambda_1_0, Initial residual = 9.20968e-05, Final residual = 9.20968e-05, No Iterations 0
GAMG:  Solving for ILambda_2_0, Initial residual = 9.20968e-05, Final residual = 9.20968e-05, No Iterations 0
GAMG:  Solving for ILambda_3_0, Initial residual = 9.9794772e-05, Final residual = 9.9794772e-05, No Iterations 0
GAMG:  Solving for ILambda_4_0, Initial residual = 9.4159406e-05, Final residual = 9.4159406e-05, No Iterations 0
GAMG:  Solving for ILambda_5_0, Initial residual = 9.5151243e-05, Final residual = 9.5151243e-05, No Iterations 0
GAMG:  Solving for ILambda_6_0, Initial residual = 9.5151243e-05, Final residual = 9.5151243e-05, No Iterations 0
GAMG:  Solving for ILambda_7_0, Initial residual = 9.4159406e-05, Final residual = 9.4159406e-05, No Iterations 0
GAMG:  Solving for ILambda_8_0, Initial residual = 9.9853888e-05, Final residual = 9.9853888e-05, No Iterations 0
GAMG:  Solving for ILambda_9_0, Initial residual = 9.8037309e-05, Final residual = 9.8037309e-05, No Iterations 0
GAMG:  Solving for ILambda_10_0, Initial residual = 9.8037309e-05, Final residual = 9.8037309e-05, No Iterations 0
GAMG:  Solving for ILambda_11_0, Initial residual = 9.9853888e-05, Final residual = 9.9853888e-05, No Iterations 0
GAMG:  Solving for ILambda_12_0, Initial residual = 9.985412e-05, Final residual = 9.985412e-05, No Iterations 0
GAMG:  Solving for ILambda_13_0, Initial residual = 8.9394233e-05, Final residual = 8.9394233e-05, No Iterations 0
GAMG:  Solving for ILambda_14_0, Initial residual = 8.9394233e-05, Final residual = 8.9394233e-05, No Iterations 0
GAMG:  Solving for ILambda_15_0, Initial residual = 9.985412e-05, Final residual = 9.985412e-05, No Iterations 0
Radiation solver iter: 5
GAMG:  Solving for ILambda_0_0, Initial residual = 9.9794772e-05, Final residual = 9.9794772e-05, No Iterations 0
GAMG:  Solving for ILambda_1_0, Initial residual = 9.20968e-05, Final residual = 9.20968e-05, No Iterations 0
GAMG:  Solving for ILambda_2_0, Initial residual = 9.20968e-05, Final residual = 9.20968e-05, No Iterations 0
GAMG:  Solving for ILambda_3_0, Initial residual = 9.9794772e-05, Final residual = 9.9794772e-05, No Iterations 0
GAMG:  Solving for ILambda_4_0, Initial residual = 9.4159406e-05, Final residual = 9.4159406e-05, No Iterations 0
GAMG:  Solving for ILambda_5_0, Initial residual = 9.5151243e-05, Final residual = 9.5151243e-05, No Iterations 0
GAMG:  Solving for ILambda_6_0, Initial residual = 9.5151243e-05, Final residual = 9.5151243e-05, No Iterations 0
GAMG:  Solving for ILambda_7_0, Initial residual = 9.4159406e-05, Final residual = 9.4159406e-05, No Iterations 0
GAMG:  Solving for ILambda_8_0, Initial residual = 9.9853888e-05, Final residual = 9.9853888e-05, No Iterations 0
GAMG:  Solving for ILambda_9_0, Initial residual = 9.8037309e-05, Final residual = 9.8037309e-05, No Iterations 0
GAMG:  Solving for ILambda_10_0, Initial residual = 9.8037309e-05, Final residual = 9.8037309e-05, No Iterations 0
GAMG:  Solving for ILambda_11_0, Initial residual = 9.9853888e-05, Final residual = 9.9853888e-05, No Iterations 0
GAMG:  Solving for ILambda_12_0, Initial residual = 9.985412e-05, Final residual = 9.985412e-05, No Iterations 0
GAMG:  Solving for ILambda_13_0, Initial residual = 8.9394233e-05, Final residual = 8.9394233e-05, No Iterations 0
GAMG:  Solving for ILambda_14_0, Initial residual = 8.9394233e-05, Final residual = 8.9394233e-05, No Iterations 0
GAMG:  Solving for ILambda_15_0, Initial residual = 9.985412e-05, Final residual = 9.985412e-05, No Iterations 0
Radiation solver iter: 6
GAMG:  Solving for ILambda_0_0, Initial residual = 9.9794772e-05, Final residual = 9.9794772e-05, No Iterations 0
GAMG:  Solving for ILambda_1_0, Initial residual = 9.20968e-05, Final residual = 9.20968e-05, No Iterations 0
GAMG:  Solving for ILambda_2_0, Initial residual = 9.20968e-05, Final residual = 9.20968e-05, No Iterations 0
GAMG:  Solving for ILambda_3_0, Initial residual = 9.9794772e-05, Final residual = 9.9794772e-05, No Iterations 0
GAMG:  Solving for ILambda_4_0, Initial residual = 9.4159406e-05, Final residual = 9.4159406e-05, No Iterations 0
GAMG:  Solving for ILambda_5_0, Initial residual = 9.5151243e-05, Final residual = 9.5151243e-05, No Iterations 0
GAMG:  Solving for ILambda_6_0, Initial residual = 9.5151243e-05, Final residual = 9.5151243e-05, No Iterations 0
GAMG:  Solving for ILambda_7_0, Initial residual = 9.4159406e-05, Final residual = 9.4159406e-05, No Iterations 0
GAMG:  Solving for ILambda_8_0, Initial residual = 9.9853888e-05, Final residual = 9.9853888e-05, No Iterations 0
GAMG:  Solving for ILambda_9_0, Initial residual = 9.8037309e-05, Final residual = 9.8037309e-05, No Iterations 0
GAMG:  Solving for ILambda_10_0, Initial residual = 9.8037309e-05, Final residual = 9.8037309e-05, No Iterations 0
GAMG:  Solving for ILambda_11_0, Initial residual = 9.9853888e-05, Final residual = 9.9853888e-05, No Iterations 0
GAMG:  Solving for ILambda_12_0, Initial residual = 9.985412e-05, Final residual = 9.985412e-05, No Iterations 0
GAMG:  Solving for ILambda_13_0, Initial residual = 8.9394233e-05, Final residual = 8.9394233e-05, No Iterations 0
GAMG:  Solving for ILambda_14_0, Initial residual = 8.9394233e-05, Final residual = 8.9394233e-05, No Iterations 0
GAMG:  Solving for ILambda_15_0, Initial residual = 9.985412e-05, Final residual = 9.985412e-05, No Iterations 0
Radiation solver iter: 7
GAMG:  Solving for ILambda_0_0, Initial residual = 9.9794772e-05, Final residual = 9.9794772e-05, No Iterations 0
GAMG:  Solving for ILambda_1_0, Initial residual = 9.20968e-05, Final residual = 9.20968e-05, No Iterations 0
GAMG:  Solving for ILambda_2_0, Initial residual = 9.20968e-05, Final residual = 9.20968e-05, No Iterations 0
GAMG:  Solving for ILambda_3_0, Initial residual = 9.9794772e-05, Final residual = 9.9794772e-05, No Iterations 0
GAMG:  Solving for ILambda_4_0, Initial residual = 9.4159406e-05, Final residual = 9.4159406e-05, No Iterations 0
GAMG:  Solving for ILambda_5_0, Initial residual = 9.5151243e-05, Final residual = 9.5151243e-05, No Iterations 0
GAMG:  Solving for ILambda_6_0, Initial residual = 9.5151243e-05, Final residual = 9.5151243e-05, No Iterations 0
GAMG:  Solving for ILambda_7_0, Initial residual = 9.4159406e-05, Final residual = 9.4159406e-05, No Iterations 0
GAMG:  Solving for ILambda_8_0, Initial residual = 9.9853888e-05, Final residual = 9.9853888e-05, No Iterations 0
GAMG:  Solving for ILambda_9_0, Initial residual = 9.8037309e-05, Final residual = 9.8037309e-05, No Iterations 0
GAMG:  Solving for ILambda_10_0, Initial residual = 9.8037309e-05, Final residual = 9.8037309e-05, No Iterations 0
GAMG:  Solving for ILambda_11_0, Initial residual = 9.9853888e-05, Final residual = 9.9853888e-05, No Iterations 0
GAMG:  Solving for ILambda_12_0, Initial residual = 9.985412e-05, Final residual = 9.985412e-05, No Iterations 0
GAMG:  Solving for ILambda_13_0, Initial residual = 8.9394233e-05, Final residual = 8.9394233e-05, No Iterations 0
GAMG:  Solving for ILambda_14_0, Initial residual = 8.9394233e-05, Final residual = 8.9394233e-05, No Iterations 0
GAMG:  Solving for ILambda_15_0, Initial residual = 9.985412e-05, Final residual = 9.985412e-05, No Iterations 0
Radiation solver iter: 8
GAMG:  Solving for ILambda_0_0, Initial residual = 9.9794772e-05, Final residual = 9.9794772e-05, No Iterations 0
GAMG:  Solving for ILambda_1_0, Initial residual = 9.20968e-05, Final residual = 9.20968e-05, No Iterations 0
GAMG:  Solving for ILambda_2_0, Initial residual = 9.20968e-05, Final residual = 9.20968e-05, No Iterations 0
GAMG:  Solving for ILambda_3_0, Initial residual = 9.9794772e-05, Final residual = 9.9794772e-05, No Iterations 0
GAMG:  Solving for ILambda_4_0, Initial residual = 9.4159406e-05, Final residual = 9.4159406e-05, No Iterations 0
GAMG:  Solving for ILambda_5_0, Initial residual = 9.5151243e-05, Final residual = 9.5151243e-05, No Iterations 0
GAMG:  Solving for ILambda_6_0, Initial residual = 9.5151243e-05, Final residual = 9.5151243e-05, No Iterations 0
GAMG:  Solving for ILambda_7_0, Initial residual = 9.4159406e-05, Final residual = 9.4159406e-05, No Iterations 0
GAMG:  Solving for ILambda_8_0, Initial residual = 9.9853888e-05, Final residual = 9.9853888e-05, No Iterations 0
GAMG:  Solving for ILambda_9_0, Initial residual = 9.8037309e-05, Final residual = 9.8037309e-05, No Iterations 0
GAMG:  Solving for ILambda_10_0, Initial residual = 9.8037309e-05, Final residual = 9.8037309e-05, No Iterations 0
GAMG:  Solving for ILambda_11_0, Initial residual = 9.9853888e-05, Final residual = 9.9853888e-05, No Iterations 0
GAMG:  Solving for ILambda_12_0, Initial residual = 9.985412e-05, Final residual = 9.985412e-05, No Iterations 0
GAMG:  Solving for ILambda_13_0, Initial residual = 8.9394233e-05, Final residual = 8.9394233e-05, No Iterations 0
GAMG:  Solving for ILambda_14_0, Initial residual = 8.9394233e-05, Final residual = 8.9394233e-05, No Iterations 0
GAMG:  Solving for ILambda_15_0, Initial residual = 9.985412e-05, Final residual = 9.985412e-05, No Iterations 0
Radiation solver iter: 9
GAMG:  Solving for ILambda_0_0, Initial residual = 9.9794772e-05, Final residual = 9.9794772e-05, No Iterations 0
GAMG:  Solving for ILambda_1_0, Initial residual = 9.20968e-05, Final residual = 9.20968e-05, No Iterations 0
GAMG:  Solving for ILambda_2_0, Initial residual = 9.20968e-05, Final residual = 9.20968e-05, No Iterations 0
GAMG:  Solving for ILambda_3_0, Initial residual = 9.9794772e-05, Final residual = 9.9794772e-05, No Iterations 0
GAMG:  Solving for ILambda_4_0, Initial residual = 9.4159406e-05, Final residual = 9.4159406e-05, No Iterations 0
GAMG:  Solving for ILambda_5_0, Initial residual = 9.5151243e-05, Final residual = 9.5151243e-05, No Iterations 0
GAMG:  Solving for ILambda_6_0, Initial residual = 9.5151243e-05, Final residual = 9.5151243e-05, No Iterations 0
GAMG:  Solving for ILambda_7_0, Initial residual = 9.4159406e-05, Final residual = 9.4159406e-05, No Iterations 0
GAMG:  Solving for ILambda_8_0, Initial residual = 9.9853888e-05, Final residual = 9.9853888e-05, No Iterations 0
GAMG:  Solving for ILambda_9_0, Initial residual = 9.8037309e-05, Final residual = 9.8037309e-05, No Iterations 0
GAMG:  Solving for ILambda_10_0, Initial residual = 9.8037309e-05, Final residual = 9.8037309e-05, No Iterations 0
GAMG:  Solving for ILambda_11_0, Initial residual = 9.9853888e-05, Final residual = 9.9853888e-05, No Iterations 0
GAMG:  Solving for ILambda_12_0, Initial residual = 9.985412e-05, Final residual = 9.985412e-05, No Iterations 0
GAMG:  Solving for ILambda_13_0, Initial residual = 8.9394233e-05, Final residual = 8.9394233e-05, No Iterations 0
GAMG:  Solving for ILambda_14_0, Initial residual = 8.9394233e-05, Final residual = 8.9394233e-05, No Iterations 0
GAMG:  Solving for ILambda_15_0, Initial residual = 9.985412e-05, Final residual = 9.985412e-05, No Iterations 0
GAMG:  Solving for p_rgh, Initial residual = 9.984819e-07, Final residual = 9.984819e-07, No Iterations 0
time step continuity errors : sum local = 1.5710052e-05, global = -2.2586204e-07, cumulative = 0.0013787459
ExecutionTime = 53.23 s  ClockTime = 53 s
Inflow      : 4.1320272e-05 [kg/s]
Outflow     : 4.1320084e-05 [kg/s]
EnergyInflow  : 12.208579 [W]
EnergyOutflow : 12.584173 [W]
EnergyBalance : 0.37559404 [W]
rho max/avg/min : 1.2016457 1.08999 0.84244543
T   max/avg/min : 418.85471 328.45108 293.68579
P   max/avg/min : 101324.91 101316.16 101307.4
Prg max/avg/min : 101325 101324.12 101319.74
U   max/avg/min : 1.2055676 0.33106134 0
Prg max-min : 5.256219
 
sngrad(rho) :-0.00013957679 -0.00020989071 -0.00031846049
 

SIMPLE solution converged in 760 iterations

End

