/*---------------------------------------------------------------------------*\
| =========                 |                                                 |
| \\      /  F ield         | OpenFOAM: The Open Source CFD Toolbox           |
|  \\    /   O peration     | Version:  4.0                                   |
|   \\  /    A nd           | Web:      www.OpenFOAM.org                      |
|    \\/     M anipulation  |                                                 |
\*---------------------------------------------------------------------------*/
Build  : 4.0-665f1db4c1f1
Exec   : pupoCHTFoam
Date   : Aug 24 2016
Time   : 20:52:16
Host   : "SC500"
PID    : 14826
Case   : /home/pedro/Documents/ThesisProject/OpenFoam/validation1rod/CHT
nProcs : 1
sigFpe : Enabling floating point exception trapping (FOAM_SIGFPE).
fileModificationChecking : Monitoring run-time modified files using timeStampMaster
allowSystemOperations : Allowing user-supplied system call operations

// * * * * * * * * * * * * * * * * * * * * * * * * * * * * * * * * * * * * * //
Create time

Create fluid mesh for region fluid for time = 0

Create solid mesh for region cilcen for time = 0

    Adding to gFluid

    Adding to hRefFluid

    Adding to ghFluid

    Adding to ghfFluid

*** Reading fluid mesh thermophysical properties for region fluid

    Adding to thermoFluid
Selecting thermodynamics package 
{
    type            heRhoThermo;
    mixture         pureMixture;
    transport       sutherland;
    thermo          hConst;
    equationOfState perfectGas;
    specie          specie;
    energy          sensibleEnthalpy;
}

    Adding to rhoFluid
    Adding to UFluid
    Adding to phiFluid
    Adding to snGradRhoFluid
    Adding to turbulence
Selecting turbulence model type laminar
Selecting radiationModel none
    Adding MRF
No MRF models present

    Adding fvOptions
No finite volume options present

*** Reading solid mesh thermophysical properties for region cilcen

    Adding to thermos

Selecting thermodynamics package 
{
    type            heSolidThermo;
    mixture         pureMixture;
    transport       constIso;
    thermo          hConst;
    equationOfState rhoConst;
    specie          specie;
    energy          sensibleEnthalpy;
}

    Adding to radiations

Selecting radiationModel none
    Adding fvOptions

Creating finite volume options from "system/fvOptions"

Selecting finite volume options model type scalarSemiImplicitSource
    Source: source1
    - selecting cells using cellZone cilcen
    - selected 100 cell(s) with volume 6.693561e-07
Time = 1


Solving for fluid region fluid
DILUPBiCG:  Solving for Ux, Initial residual = 0.0090772105, Final residual = 8.5757135e-06, No Iterations 1
DILUPBiCG:  Solving for Uy, Initial residual = 4.4153142e-07, Final residual = 1.7810883e-10, No Iterations 1
DILUPBiCG:  Solving for Uz, Initial residual = 1, Final residual = 2.4965754e-06, No Iterations 2
DILUPBiCG:  Solving for h, Initial residual = 0.99651087, Final residual = 0.00015430164, No Iterations 4
GAMG:  Solving for p_rgh, Initial residual = 0.0015682704, Final residual = 3.214497e-06, No Iterations 1000
time step continuity errors : sum local = 8.3088185e-08, global = -4.7265594e-10, cumulative = -4.7265594e-10
ExecutionTime = 1.13 s  ClockTime = 1 s
fluid  Inflow      : -2.0964892e-08 [kg/s]
fluid  Outflow     : -2.0965286e-08 [kg/s]
fluid  EnergyInflow  : -0.0061943332 [W]
fluid  EnergyOutflow : -0.0061944497 [W]
fluid  rho max/avg/min : 1.2016452 1.2015414 1.2014376
fluid  T   max/avg/min : 293.70002 293.7 293.7
fluid  P   max/avg/min : 101324.91 101316.16 101307.41
fluid  Prg max/avg/min : 101325 101325 101325
fluid  U   max/avg/min : 0 -7.1833965e-06 -8.3466072e-05
fluid  K average:  0.026451611
fluid  nu average: 1.5108428e-05

Solving for solid region cilcen
DICPCG:  Solving for h, Initial residual = 1, Final residual = 9.4241097e-17, No Iterations 1
Tcilcen  max/avg/min : 294.18988 294.18988 294.18988
ExecutionTime = 1.13 s  ClockTime = 1 s

Time = 2


Solving for fluid region fluid
DILUPBiCG:  Solving for Ux, Initial residual = 0.28765154, Final residual = 6.6808935e-07, No Iterations 2
DILUPBiCG:  Solving for Uy, Initial residual = 1.3525695e-05, Final residual = 1.3476992e-08, No Iterations 1
DILUPBiCG:  Solving for Uz, Initial residual = 0.37015603, Final residual = 0.00034816895, No Iterations 1
DILUPBiCG:  Solving for h, Initial residual = 0.99999909, Final residual = 2.1553836e-05, No Iterations 1
GAMG:  Solving for p_rgh, Initial residual = 0.2311753, Final residual = 0.0002276815, No Iterations 3
time step continuity errors : sum local = 4.9536253e-06, global = 2.1750225e-06, cumulative = 2.1745499e-06
ExecutionTime = 1.18 s  ClockTime = 1 s
fluid  Inflow      : -2.9843833e-08 [kg/s]
fluid  Outflow     : -2.8029866e-08 [kg/s]
fluid  EnergyInflow  : -0.0088177246 [W]
fluid  EnergyOutflow : -0.0082817658 [W]
fluid  rho max/avg/min : 1.2016452 1.2014906 1.2002065
fluid  T   max/avg/min : 294.0013 293.71243 293.7
fluid  P   max/avg/min : 101324.91 101316.16 101307.41
fluid  Prg max/avg/min : 101325 101325 101324.98
fluid  U   max/avg/min : 8.587044e-05 -9.9604093e-06 -7.2428452e-05
fluid  K average:  0.026452476
fluid  nu average: 1.5109563e-05

Solving for solid region cilcen
DICPCG:  Solving for h, Initial residual = 1, Final residual = 1.1660329e-16, No Iterations 1
Tcilcen  max/avg/min : 294.49059 294.49059 294.49058
ExecutionTime = 1.18 s  ClockTime = 1 s

Time = 3


Solving for fluid region fluid
DILUPBiCG:  Solving for Ux, Initial residual = 0.18006215, Final residual = 4.1087961e-07, No Iterations 2
DILUPBiCG:  Solving for Uy, Initial residual = 1.067069e-05, Final residual = 1.1980482e-11, No Iterations 2
DILUPBiCG:  Solving for Uz, Initial residual = 0.04233661, Final residual = 6.2204547e-08, No Iterations 2
DILUPBiCG:  Solving for h, Initial residual = 0.31526918, Final residual = 1.0464723e-05, No Iterations 1
GAMG:  Solving for p_rgh, Initial residual = 0.064028977, Final residual = 4.5176312e-05, No Iterations 3
time step continuity errors : sum local = 2.2347582e-06, global = 8.7793194e-07, cumulative = 3.0524818e-06
ExecutionTime = 1.23 s  ClockTime = 1 s
fluid  Inflow      : -2.0375228e-08 [kg/s]
fluid  Outflow     : -1.9643034e-08 [kg/s]
fluid  EnergyInflow  : -0.0060201098 [W]
fluid  EnergyOutflow : -0.005803769 [W]
fluid  rho max/avg/min : 1.2016452 1.201427 1.1990997
fluid  T   max/avg/min : 294.27264 293.72801 293.7
fluid  P   max/avg/min : 101324.91 101316.16 101307.41
fluid  Prg max/avg/min : 101325 101325 101324.96
fluid  U   max/avg/min : 0.00019010807 -6.8830771e-06 -5.0615766e-05
fluid  K average:  0.026453561
fluid  nu average: 1.5110985e-05

Solving for solid region cilcen
DICPCG:  Solving for h, Initial residual = 0.99999833, Final residual = 1.771276e-16, No Iterations 1
Tcilcen  max/avg/min : 294.76157 294.76157 294.76154
ExecutionTime = 1.23 s  ClockTime = 1 s

Time = 4


Solving for fluid region fluid
DILUPBiCG:  Solving for Ux, Initial residual = 0.26021667, Final residual = 7.055077e-07, No Iterations 2
DILUPBiCG:  Solving for Uy, Initial residual = 6.4730604e-06, Final residual = 6.0847251e-09, No Iterations 1
DILUPBiCG:  Solving for Uz, Initial residual = 0.29151239, Final residual = 3.6439994e-07, No Iterations 2
DILUPBiCG:  Solving for h, Initial residual = 0.19035, Final residual = 8.1067959e-06, No Iterations 1
GAMG:  Solving for p_rgh, Initial residual = 0.03083529, Final residual = 1.6561781e-05, No Iterations 3
time step continuity errors : sum local = 1.272109e-06, global = -5.8637199e-07, cumulative = 2.4661098e-06
ExecutionTime = 1.28 s  ClockTime = 2 s
fluid  Inflow      : -1.3181396e-08 [kg/s]
fluid  Outflow     : -1.367043e-08 [kg/s]
fluid  EnergyInflow  : -0.0038946042 [W]
fluid  EnergyOutflow : -0.0040390796 [W]
fluid  rho max/avg/min : 1.2016452 1.2013543 1.1980751
fluid  T   max/avg/min : 294.5243 293.74583 293.7
fluid  P   max/avg/min : 101324.91 101316.16 101307.41
fluid  Prg max/avg/min : 101325 101325 101324.95
fluid  U   max/avg/min : 0.00030133041 -4.2904509e-06 -3.3929924e-05
fluid  K average:  0.026454802
fluid  nu average: 1.5112612e-05

Solving for solid region cilcen
DICPCG:  Solving for h, Initial residual = 0.9999966, Final residual = 3.6832512e-16, No Iterations 1
Tcilcen  max/avg/min : 295.01289 295.01289 295.01284
ExecutionTime = 1.29 s  ClockTime = 2 s

Time = 5


Solving for fluid region fluid
DILUPBiCG:  Solving for Ux, Initial residual = 0.21815118, Final residual = 4.7111861e-07, No Iterations 2
DILUPBiCG:  Solving for Uy, Initial residual = 5.0833265e-06, Final residual = 4.8281471e-09, No Iterations 1
DILUPBiCG:  Solving for Uz, Initial residual = 0.16959086, Final residual = 1.6101194e-07, No Iterations 2
DILUPBiCG:  Solving for h, Initial residual = 0.13621219, Final residual = 7.0150426e-06, No Iterations 1
GAMG:  Solving for p_rgh, Initial residual = 0.019262634, Final residual = 6.3204738e-06, No Iterations 2
time step continuity errors : sum local = 6.3751433e-07, global = -2.6321206e-07, cumulative = 2.2028978e-06
ExecutionTime = 1.34 s  ClockTime = 2 s
fluid  Inflow      : -8.8775268e-09 [kg/s]
fluid  Outflow     : -9.0970455e-09 [kg/s]
fluid  EnergyInflow  : -0.0026229736 [W]
fluid  EnergyOutflow : -0.0026877993 [W]
fluid  rho max/avg/min : 1.2016452 1.2012745 1.197111
fluid  T   max/avg/min : 294.76152 293.76541 293.7
fluid  P   max/avg/min : 101324.91 101316.16 101307.41
fluid  Prg max/avg/min : 101325 101325 101324.94
fluid  U   max/avg/min : 0.00040149317 -2.2289632e-06 -2.4326533e-05
fluid  K average:  0.026456165
fluid  nu average: 1.51144e-05

Solving for solid region cilcen
DICPCG:  Solving for h, Initial residual = 0.99999366, Final residual = 3.9454598e-16, No Iterations 1
Tcilcen  max/avg/min : 295.2498 295.2498 295.2497
ExecutionTime = 1.34 s  ClockTime = 2 s

Time = 6


Solving for fluid region fluid
DILUPBiCG:  Solving for Ux, Initial residual = 0.17379104, Final residual = 3.7400759e-07, No Iterations 2
DILUPBiCG:  Solving for Uy, Initial residual = 5.0697915e-06, Final residual = 4.9432473e-09, No Iterations 1
DILUPBiCG:  Solving for Uz, Initial residual = 0.2120737, Final residual = 1.5730504e-07, No Iterations 2
DILUPBiCG:  Solving for h, Initial residual = 0.10624428, Final residual = 6.3494075e-06, No Iterations 1
GAMG:  Solving for p_rgh, Initial residual = 0.013263769, Final residual = 4.9201779e-06, No Iterations 2
time step continuity errors : sum local = 6.3607186e-07, global = -2.6381157e-07, cumulative = 1.9390862e-06
ExecutionTime = 1.39 s  ClockTime = 2 s
fluid  Inflow      : -5.5925038e-09 [kg/s]
fluid  Outflow     : -5.8125224e-09 [kg/s]
fluid  EnergyInflow  : -0.0016523735 [W]
fluid  EnergyOutflow : -0.0017173201 [W]
fluid  rho max/avg/min : 1.2016452 1.2011888 1.1961942
fluid  T   max/avg/min : 294.98742 293.78644 293.7
fluid  P   max/avg/min : 101324.91 101316.16 101307.41
fluid  Prg max/avg/min : 101325 101325 101324.92
fluid  U   max/avg/min : 0.00051336176 -2.7902657e-07 -1.7955411e-05
fluid  K average:  0.026457628
fluid  nu average: 1.5116321e-05

Solving for solid region cilcen
DICPCG:  Solving for h, Initial residual = 0.99998929, Final residual = 1.1466092e-16, No Iterations 1
Tcilcen  max/avg/min : 295.47541 295.47541 295.47526
ExecutionTime = 1.39 s  ClockTime = 2 s

Time = 7


Solving for fluid region fluid
DILUPBiCG:  Solving for Ux, Initial residual = 0.12620321, Final residual = 0.00011173682, No Iterations 1
DILUPBiCG:  Solving for Uy, Initial residual = 4.5503245e-06, Final residual = 4.5193513e-09, No Iterations 1
DILUPBiCG:  Solving for Uz, Initial residual = 0.20533341, Final residual = 1.029984e-07, No Iterations 2
DILUPBiCG:  Solving for h, Initial residual = 0.087258196, Final residual = 5.9203293e-06, No Iterations 1
GAMG:  Solving for p_rgh, Initial residual = 0.0098256344, Final residual = 3.5233363e-06, No Iterations 2
time step continuity errors : sum local = 5.540483e-07, global = 6.9713162e-08, cumulative = 2.0087994e-06
ExecutionTime = 1.44 s  ClockTime = 2 s
fluid  Inflow      : -2.9017207e-09 [kg/s]
fluid  Outflow     : -2.84358e-09 [kg/s]
fluid  EnergyInflow  : -0.00085734879 [W]
fluid  EnergyOutflow : -0.00084007267 [W]
fluid  rho max/avg/min : 1.2016452 1.201098 1.1953163
fluid  T   max/avg/min : 295.20408 293.80872 293.7
fluid  P   max/avg/min : 101324.91 101316.16 101307.41
fluid  Prg max/avg/min : 101325 101325 101324.91
fluid  U   max/avg/min : 0.00063143123 1.7060617e-06 -1.3132345e-05
fluid  K average:  0.026459179
fluid  nu average: 1.5118357e-05

Solving for solid region cilcen
DICPCG:  Solving for h, Initial residual = 0.99998322, Final residual = 2.3453945e-16, No Iterations 1
Tcilcen  max/avg/min : 295.69179 295.69179 295.69159
ExecutionTime = 1.44 s  ClockTime = 2 s

Time = 8


Solving for fluid region fluid
DILUPBiCG:  Solving for Ux, Initial residual = 0.10246492, Final residual = 6.9621128e-05, No Iterations 1
DILUPBiCG:  Solving for Uy, Initial residual = 4.2862253e-06, Final residual = 3.7906376e-09, No Iterations 1
DILUPBiCG:  Solving for Uz, Initial residual = 0.17161951, Final residual = 6.9574732e-08, No Iterations 2
DILUPBiCG:  Solving for h, Initial residual = 0.074114397, Final residual = 5.6252997e-06, No Iterations 1
GAMG:  Solving for p_rgh, Initial residual = 0.0075279707, Final residual = 3.9829997e-06, No Iterations 2
time step continuity errors : sum local = 7.3301007e-07, global = 2.5981117e-07, cumulative = 2.2686105e-06
ExecutionTime = 1.49 s  ClockTime = 2 s
fluid  Inflow      : -9.0265347e-10 [kg/s]
fluid  Outflow     : -6.8597111e-10 [kg/s]
fluid  EnergyInflow  : -0.00026669998 [W]
fluid  EnergyOutflow : -0.00020253142 [W]
fluid  rho max/avg/min : 1.2016452 1.2010029 1.1944711
fluid  T   max/avg/min : 295.41296 293.83211 293.7
fluid  P   max/avg/min : 101324.91 101316.16 101307.41
fluid  Prg max/avg/min : 101325 101325 101324.9
fluid  U   max/avg/min : 0.00074423158 3.7698153e-06 -9.6902223e-06
fluid  K average:  0.026460806
fluid  nu average: 1.5120495e-05

Solving for solid region cilcen
DICPCG:  Solving for h, Initial residual = 0.99997524, Final residual = 1.1353753e-16, No Iterations 1
Tcilcen  max/avg/min : 295.90041 295.90041 295.90014
ExecutionTime = 1.49 s  ClockTime = 2 s

Time = 9


Solving for fluid region fluid
DILUPBiCG:  Solving for Ux, Initial residual = 0.09043042, Final residual = 6.3314293e-05, No Iterations 1
DILUPBiCG:  Solving for Uy, Initial residual = 4.1840196e-06, Final residual = 3.3238571e-09, No Iterations 1
DILUPBiCG:  Solving for Uz, Initial residual = 0.13484443, Final residual = 0.0001202026, No Iterations 1
DILUPBiCG:  Solving for h, Initial residual = 0.064523162, Final residual = 5.4227596e-06, No Iterations 1
GAMG:  Solving for p_rgh, Initial residual = 0.0058478372, Final residual = 3.1649081e-06, No Iterations 2
time step continuity errors : sum local = 6.7915085e-07, global = 3.8597824e-07, cumulative = 2.6545888e-06
ExecutionTime = 1.54 s  ClockTime = 2 s
fluid  Inflow      : 7.6377941e-10 [kg/s]
fluid  Outflow     : 1.085685e-09 [kg/s]
fluid  EnergyInflow  : 0.00022566794 [W]
fluid  EnergyOutflow : 0.0003209895 [W]
fluid  rho max/avg/min : 1.2016452 1.2009038 1.1936541
fluid  T   max/avg/min : 295.61517 293.85649 293.7
fluid  P   max/avg/min : 101324.91 101316.16 101307.41
fluid  Prg max/avg/min : 101325 101324.99 101324.88
fluid  U   max/avg/min : 0.00085180756 6.0402841e-06 -7.0015457e-06
fluid  K average:  0.026462502
fluid  nu average: 1.5122723e-05

Solving for solid region cilcen
DICPCG:  Solving for h, Initial residual = 0.99996519, Final residual = 1.2906532e-16, No Iterations 1
Tcilcen  max/avg/min : 296.10236 296.10235 296.10201
ExecutionTime = 1.54 s  ClockTime = 2 s

Time = 10


Solving for fluid region fluid
DILUPBiCG:  Solving for Ux, Initial residual = 0.080193647, Final residual = 4.668508e-05, No Iterations 1
DILUPBiCG:  Solving for Uy, Initial residual = 3.98694e-06, Final residual = 2.9548148e-09, No Iterations 1
DILUPBiCG:  Solving for Uz, Initial residual = 0.11789311, Final residual = 8.8502327e-05, No Iterations 1
DILUPBiCG:  Solving for h, Initial residual = 0.057157868, Final residual = 5.2808327e-06, No Iterations 1
GAMG:  Solving for p_rgh, Initial residual = 0.0049349507, Final residual = 2.4892542e-06, No Iterations 2
time step continuity errors : sum local = 6.1464985e-07, global = 4.6464809e-07, cumulative = 3.1192369e-06
ExecutionTime = 1.58 s  ClockTime = 2 s
fluid  Inflow      : 2.2178632e-09 [kg/s]
fluid  Outflow     : 2.6053795e-09 [kg/s]
fluid  EnergyInflow  : 0.00065529475 [W]
fluid  EnergyOutflow : 0.00077008151 [W]
fluid  rho max/avg/min : 1.2016452 1.200801 1.1928618
fluid  T   max/avg/min : 295.81154 293.88177 293.7
fluid  P   max/avg/min : 101324.91 101316.16 101307.41
fluid  Prg max/avg/min : 101325 101324.99 101324.87
fluid  U   max/avg/min : 0.00097697868 8.5243299e-06 -4.5548984e-06
fluid  K average:  0.02646426
fluid  nu average: 1.5125035e-05

Solving for solid region cilcen
DICPCG:  Solving for h, Initial residual = 0.99995288, Final residual = 2.8272202e-16, No Iterations 1
Tcilcen  max/avg/min : 296.29848 296.29848 296.29805
ExecutionTime = 1.58 s  ClockTime = 2 s

Time = 11


Solving for fluid region fluid
DILUPBiCG:  Solving for Ux, Initial residual = 0.068910267, Final residual = 3.3401027e-05, No Iterations 1
DILUPBiCG:  Solving for Uy, Initial residual = 3.6745278e-06, Final residual = 2.4645514e-09, No Iterations 1
DILUPBiCG:  Solving for Uz, Initial residual = 0.10079075, Final residual = 5.5145564e-05, No Iterations 1
DILUPBiCG:  Solving for h, Initial residual = 0.05138311, Final residual = 5.190003e-06, No Iterations 1
GAMG:  Solving for p_rgh, Initial residual = 0.0040915483, Final residual = 3.2072987e-06, No Iterations 2
time step continuity errors : sum local = 8.9108259e-07, global = 6.1431084e-07, cumulative = 3.7335477e-06
ExecutionTime = 1.64 s  ClockTime = 2 s
fluid  Inflow      : 3.2760593e-09 [kg/s]
fluid  Outflow     : 3.7883942e-09 [kg/s]
fluid  EnergyInflow  : 0.00096795168 [W]
fluid  EnergyOutflow : 0.001119716 [W]
fluid  rho max/avg/min : 1.2016452 1.200695 1.1920913
fluid  T   max/avg/min : 296.00274 293.90787 293.7
fluid  P   max/avg/min : 101324.91 101316.16 101307.41
fluid  Prg max/avg/min : 101325 101324.99 101324.86
fluid  U   max/avg/min : 0.0011035188 1.1270621e-05 -2.6442005e-06
fluid  K average:  0.026466075
fluid  nu average: 1.5127422e-05

Solving for solid region cilcen
DICPCG:  Solving for h, Initial residual = 0.99993815, Final residual = 1.5511226e-16, No Iterations 1
Tcilcen  max/avg/min : 296.48945 296.48944 296.48892
ExecutionTime = 1.64 s  ClockTime = 2 s

Time = 12


Solving for fluid region fluid
DILUPBiCG:  Solving for Ux, Initial residual = 0.060304141, Final residual = 2.6850166e-05, No Iterations 1
DILUPBiCG:  Solving for Uy, Initial residual = 3.7563462e-06, Final residual = 2.1065672e-09, No Iterations 1
DILUPBiCG:  Solving for Uz, Initial residual = 0.090166463, Final residual = 3.6409749e-05, No Iterations 1
DILUPBiCG:  Solving for h, Initial residual = 0.046688706, Final residual = 5.1348888e-06, No Iterations 1
GAMG:  Solving for p_rgh, Initial residual = 0.0035017925, Final residual = 2.9822236e-06, No Iterations 2
time step continuity errors : sum local = 9.2119839e-07, global = 6.6049687e-07, cumulative = 4.3940446e-06
ExecutionTime = 1.68 s  ClockTime = 2 s
fluid  Inflow      : 4.2313915e-09 [kg/s]
fluid  Outflow     : 4.7822455e-09 [kg/s]
fluid  EnergyInflow  : 0.0012502162 [W]
fluid  EnergyOutflow : 0.001413481 [W]
fluid  rho max/avg/min : 1.2016452 1.2005859 1.1913404
fluid  T   max/avg/min : 296.18933 293.93474 293.7
fluid  P   max/avg/min : 101324.91 101316.16 101307.41
fluid  Prg max/avg/min : 101325 101324.99 101324.85
fluid  U   max/avg/min : 0.001227263 1.4364648e-05 -1.046643e-06
fluid  K average:  0.026467943
fluid  nu average: 1.512988e-05

Solving for solid region cilcen
DICPCG:  Solving for h, Initial residual = 0.99992082, Final residual = 2.7290418e-16, No Iterations 1
Tcilcen  max/avg/min : 296.67581 296.6758 296.67516
ExecutionTime = 1.69 s  ClockTime = 2 s

Time = 13


Solving for fluid region fluid
DILUPBiCG:  Solving for Ux, Initial residual = 0.054669581, Final residual = 2.1472464e-05, No Iterations 1
DILUPBiCG:  Solving for Uy, Initial residual = 4.4325121e-06, Final residual = 1.8438036e-09, No Iterations 1
DILUPBiCG:  Solving for Uz, Initial residual = 0.083805031, Final residual = 2.7287496e-05, No Iterations 1
DILUPBiCG:  Solving for h, Initial residual = 0.042812567, Final residual = 5.110723e-06, No Iterations 1
GAMG:  Solving for p_rgh, Initial residual = 0.0030683323, Final residual = 5.731368e-07, No Iterations 3
time step continuity errors : sum local = 1.9925395e-07, global = 1.7406446e-08, cumulative = 4.411451e-06
ExecutionTime = 1.74 s  ClockTime = 2 s
fluid  Inflow      : 5.5751306e-09 [kg/s]
fluid  Outflow     : 5.5896476e-09 [kg/s]
fluid  EnergyInflow  : 0.0016472404 [W]
fluid  EnergyOutflow : 0.0016521814 [W]
fluid  rho max/avg/min : 1.2016452 1.200474 1.1906072
fluid  T   max/avg/min : 296.37175 293.96232 293.7
fluid  P   max/avg/min : 101324.91 101316.16 101307.41
fluid  Prg max/avg/min : 101325 101324.99 101324.84
fluid  U   max/avg/min : 0.0013481893 1.7944716e-05 -4.6662661e-08
fluid  K average:  0.026469861
fluid  nu average: 1.5132403e-05

Solving for solid region cilcen
DICPCG:  Solving for h, Initial residual = 0.99990072, Final residual = 1.7028567e-16, No Iterations 1
Tcilcen  max/avg/min : 296.858 296.85798 296.85723
ExecutionTime = 1.74 s  ClockTime = 2 s

Time = 14


Solving for fluid region fluid
DILUPBiCG:  Solving for Ux, Initial residual = 0.057039647, Final residual = 2.3960832e-05, No Iterations 1
DILUPBiCG:  Solving for Uy, Initial residual = 4.6162458e-06, Final residual = 1.849921e-09, No Iterations 1
DILUPBiCG:  Solving for Uz, Initial residual = 0.081697645, Final residual = 2.8444359e-05, No Iterations 1
DILUPBiCG:  Solving for h, Initial residual = 0.039570932, Final residual = 5.114791e-06, No Iterations 1
GAMG:  Solving for p_rgh, Initial residual = 0.0030253963, Final residual = 9.9640106e-07, No Iterations 3
time step continuity errors : sum local = 3.7919661e-07, global = 7.7330815e-08, cumulative = 4.4887818e-06
ExecutionTime = 1.78 s  ClockTime = 2 s
fluid  Inflow      : 6.1922067e-09 [kg/s]
fluid  Outflow     : 6.2567005e-09 [kg/s]
fluid  EnergyInflow  : 0.001829563 [W]
fluid  EnergyOutflow : 0.0018494411 [W]
fluid  rho max/avg/min : 1.2016452 1.2003595 1.1898901
fluid  T   max/avg/min : 296.55037 293.99058 293.7
fluid  P   max/avg/min : 101324.91 101316.16 101307.41
fluid  Prg max/avg/min : 101325 101324.99 101324.83
fluid  U   max/avg/min : 0.0014818989 2.1805623e-05 0
fluid  K average:  0.026471825
fluid  nu average: 1.5134988e-05

Solving for solid region cilcen
DICPCG:  Solving for h, Initial residual = 0.99987765, Final residual = 1.1097582e-16, No Iterations 1
Tcilcen  max/avg/min : 297.0364 297.03638 297.0355
ExecutionTime = 1.78 s  ClockTime = 2 s

Time = 15


Solving for fluid region fluid
DILUPBiCG:  Solving for Ux, Initial residual = 0.048278778, Final residual = 1.7025791e-05, No Iterations 1
DILUPBiCG:  Solving for Uy, Initial residual = 4.8396203e-06, Final residual = 1.9489077e-09, No Iterations 1
DILUPBiCG:  Solving for Uz, Initial residual = 0.070912507, Final residual = 8.8986369e-06, No Iterations 1
DILUPBiCG:  Solving for h, Initial residual = 0.036797912, Final residual = 5.1539602e-06, No Iterations 1
GAMG:  Solving for p_rgh, Initial residual = 0.0027181924, Final residual = 7.8623703e-07, No Iterations 3
time step continuity errors : sum local = 3.3238777e-07, global = 9.0712865e-08, cumulative = 4.5794947e-06
ExecutionTime = 1.83 s  ClockTime = 2 s
fluid  Inflow      : 7.0096071e-09 [kg/s]
fluid  Outflow     : 7.0852616e-09 [kg/s]
fluid  EnergyInflow  : 0.0020710739 [W]
fluid  EnergyOutflow : 0.0020944512 [W]
fluid  rho max/avg/min : 1.2016452 1.2002425 1.1891878
fluid  T   max/avg/min : 296.72552 294.01946 293.7
fluid  P   max/avg/min : 101324.91 101316.16 101307.41
fluid  Prg max/avg/min : 101325 101324.99 101324.82
fluid  U   max/avg/min : 0.0016211691 2.6273148e-05 -7.1968297e-07
fluid  K average:  0.026473832
fluid  nu average: 1.5137632e-05

Solving for solid region cilcen
DICPCG:  Solving for h, Initial residual = 0.99985141, Final residual = 1.2402494e-16, No Iterations 1
Tcilcen  max/avg/min : 297.21133 297.21132 297.2103
ExecutionTime = 1.83 s  ClockTime = 2 s

Time = 16


Solving for fluid region fluid
DILUPBiCG:  Solving for Ux, Initial residual = 0.045325665, Final residual = 1.6964372e-05, No Iterations 1
DILUPBiCG:  Solving for Uy, Initial residual = 5.6925555e-06, Final residual = 1.8703847e-09, No Iterations 1
DILUPBiCG:  Solving for Uz, Initial residual = 0.072102584, Final residual = 1.7605181e-05, No Iterations 1
DILUPBiCG:  Solving for h, Initial residual = 0.034404466, Final residual = 5.2206923e-06, No Iterations 1
GAMG:  Solving for p_rgh, Initial residual = 0.0025177422, Final residual = 1.5055365e-06, No Iterations 3
time step continuity errors : sum local = 6.8320572e-07, global = 1.8615261e-07, cumulative = 4.7656473e-06
ExecutionTime = 1.88 s  ClockTime = 2 s
fluid  Inflow      : 7.7793928e-09 [kg/s]
fluid  Outflow     : 7.934644e-09 [kg/s]
fluid  EnergyInflow  : 0.0022985165 [W]
fluid  EnergyOutflow : 0.0023456479 [W]
fluid  rho max/avg/min : 1.2016452 1.2001231 1.1884992
fluid  T   max/avg/min : 296.89748 294.04894 293.7
fluid  P   max/avg/min : 101324.91 101316.16 101307.41
fluid  Prg max/avg/min : 101325 101324.99 101324.81
fluid  U   max/avg/min : 0.0017589884 3.125771e-05 -1.0439083e-06
fluid  K average:  0.026475881
fluid  nu average: 1.514033e-05

Solving for solid region cilcen
DICPCG:  Solving for h, Initial residual = 0.99982146, Final residual = 1.1239455e-16, No Iterations 1
Tcilcen  max/avg/min : 297.38308 297.38306 297.38189
ExecutionTime = 1.88 s  ClockTime = 2 s

Time = 17


Solving for fluid region fluid
DILUPBiCG:  Solving for Ux, Initial residual = 0.042584129, Final residual = 1.5426043e-05, No Iterations 1
DILUPBiCG:  Solving for Uy, Initial residual = 7.0843947e-06, Final residual = 2.6907988e-09, No Iterations 1
DILUPBiCG:  Solving for Uz, Initial residual = 0.066987296, Final residual = 1.0555933e-05, No Iterations 1
DILUPBiCG:  Solving for h, Initial residual = 0.032322448, Final residual = 5.302168e-06, No Iterations 1
GAMG:  Solving for p_rgh, Initial residual = 0.0022350019, Final residual = 9.7249161e-07, No Iterations 3
time step continuity errors : sum local = 4.8029006e-07, global = 1.3261813e-07, cumulative = 4.8982654e-06
ExecutionTime = 1.93 s  ClockTime = 2 s
fluid  Inflow      : 9.3164282e-09 [kg/s]
fluid  Outflow     : 9.4270317e-09 [kg/s]
fluid  EnergyInflow  : 0.0027526524 [W]
fluid  EnergyOutflow : 0.0027868673 [W]
fluid  rho max/avg/min : 1.2016452 1.2000015 1.1878232
fluid  T   max/avg/min : 297.06648 294.07898 293.7
fluid  P   max/avg/min : 101324.91 101316.16 101307.41
fluid  Prg max/avg/min : 101325 101324.99 101324.8
fluid  U   max/avg/min : 0.0018952857 3.7084195e-05 0
fluid  K average:  0.026477968
fluid  nu average: 1.5143081e-05

Solving for solid region cilcen
DICPCG:  Solving for h, Initial residual = 0.99978785, Final residual = 2.0744648e-16, No Iterations 1
Tcilcen  max/avg/min : 297.55187 297.55185 297.55052
ExecutionTime = 1.93 s  ClockTime = 2 s

Time = 18


Solving for fluid region fluid
DILUPBiCG:  Solving for Ux, Initial residual = 0.042395509, Final residual = 1.7602485e-05, No Iterations 1
DILUPBiCG:  Solving for Uy, Initial residual = 8.331649e-06, Final residual = 2.9964162e-09, No Iterations 1
DILUPBiCG:  Solving for Uz, Initial residual = 0.07064752, Final residual = 2.2018668e-05, No Iterations 1
DILUPBiCG:  Solving for h, Initial residual = 0.030495142, Final residual = 5.3999825e-06, No Iterations 1
GAMG:  Solving for p_rgh, Initial residual = 0.0021184049, Final residual = 1.8298713e-06, No Iterations 3
time step continuity errors : sum local = 9.6214008e-07, global = 2.4819409e-07, cumulative = 5.1464595e-06
ExecutionTime = 1.98 s  ClockTime = 2 s
fluid  Inflow      : 1.1483094e-08 [kg/s]
fluid  Outflow     : 1.1690088e-08 [kg/s]
fluid  EnergyInflow  : 0.0033928203 [W]
fluid  EnergyOutflow : 0.003455834 [W]
fluid  rho max/avg/min : 1.2016452 1.1998777 1.187159
fluid  T   max/avg/min : 297.23274 294.10956 293.7
fluid  P   max/avg/min : 101324.91 101316.16 101307.41
fluid  Prg max/avg/min : 101325 101324.99 101324.79
fluid  U   max/avg/min : 0.0020392196 4.3787291e-05 0
fluid  K average:  0.026480093
fluid  nu average: 1.5145881e-05

Solving for solid region cilcen
DICPCG:  Solving for h, Initial residual = 0.99975034, Final residual = 1.175757e-16, No Iterations 1
Tcilcen  max/avg/min : 297.71793 297.7179 297.7164
ExecutionTime = 1.98 s  ClockTime = 2 s

Time = 19


Solving for fluid region fluid
DILUPBiCG:  Solving for Ux, Initial residual = 0.041326495, Final residual = 1.8657758e-05, No Iterations 1
DILUPBiCG:  Solving for Uy, Initial residual = 9.2031936e-06, Final residual = 3.1056899e-09, No Iterations 1
DILUPBiCG:  Solving for Uz, Initial residual = 0.0711142, Final residual = 2.5693482e-05, No Iterations 1
DILUPBiCG:  Solving for h, Initial residual = 0.028873457, Final residual = 5.5111478e-06, No Iterations 1
GAMG:  Solving for p_rgh, Initial residual = 0.0019566568, Final residual = 1.3383688e-06, No Iterations 3
time step continuity errors : sum local = 7.5057533e-07, global = 2.1900148e-07, cumulative = 5.365461e-06
ExecutionTime = 2.04 s  ClockTime = 2 s
fluid  Inflow      : 1.4680756e-08 [kg/s]
fluid  Outflow     : 1.4863404e-08 [kg/s]
fluid  EnergyInflow  : 0.0043376086 [W]
fluid  EnergyOutflow : 0.0043937972 [W]
fluid  rho max/avg/min : 1.2016452 1.199752 1.1865057
fluid  T   max/avg/min : 297.39644 294.14066 293.7
fluid  P   max/avg/min : 101324.91 101316.16 101307.41
fluid  Prg max/avg/min : 101325 101324.99 101324.78
fluid  U   max/avg/min : 0.0021934802 5.1508374e-05 0
fluid  K average:  0.026482253
fluid  nu average: 1.5148729e-05

Solving for solid region cilcen
DICPCG:  Solving for h, Initial residual = 0.99970873, Final residual = 1.1936076e-16, No Iterations 1
Tcilcen  max/avg/min : 297.88142 297.88139 297.8797
ExecutionTime = 2.04 s  ClockTime = 2 s

Time = 20


Solving for fluid region fluid
DILUPBiCG:  Solving for Ux, Initial residual = 0.040295914, Final residual = 1.9459501e-05, No Iterations 1
DILUPBiCG:  Solving for Uy, Initial residual = 1.2224836e-05, Final residual = 5.1348935e-09, No Iterations 1
DILUPBiCG:  Solving for Uz, Initial residual = 0.073697571, Final residual = 3.4209259e-05, No Iterations 1
DILUPBiCG:  Solving for h, Initial residual = 0.027426353, Final residual = 5.6359972e-06, No Iterations 1
GAMG:  Solving for p_rgh, Initial residual = 0.0018132368, Final residual = 6.0762262e-07, No Iterations 4
time step continuity errors : sum local = 3.6831642e-07, global = 1.6266306e-07, cumulative = 5.5281241e-06
ExecutionTime = 2.09 s  ClockTime = 2 s
fluid  Inflow      : 1.8870428e-08 [kg/s]
fluid  Outflow     : 1.9006089e-08 [kg/s]
fluid  EnergyInflow  : 0.0055754981 [W]
fluid  EnergyOutflow : 0.0056182274 [W]
fluid  rho max/avg/min : 1.2016452 1.1996243 1.1858628
fluid  T   max/avg/min : 297.55773 294.17224 293.7
fluid  P   max/avg/min : 101324.91 101316.16 101307.41
fluid  Prg max/avg/min : 101325 101324.99 101324.77
fluid  U   max/avg/min : 0.0023471527 6.0275736e-05 0
fluid  K average:  0.026484447
fluid  nu average: 1.5151622e-05

Solving for solid region cilcen
DICPCG:  Solving for h, Initial residual = 0.99966278, Final residual = 1.1664985e-16, No Iterations 1
Tcilcen  max/avg/min : 298.04252 298.04249 298.0406
ExecutionTime = 2.1 s  ClockTime = 2 s

Time = 21


Solving for fluid region fluid
DILUPBiCG:  Solving for Ux, Initial residual = 0.039670738, Final residual = 2.0388067e-05, No Iterations 1
DILUPBiCG:  Solving for Uy, Initial residual = 1.1414347e-05, Final residual = 5.8594068e-09, No Iterations 1
DILUPBiCG:  Solving for Uz, Initial residual = 0.074476679, Final residual = 3.8410647e-05, No Iterations 1
DILUPBiCG:  Solving for h, Initial residual = 0.026126451, Final residual = 5.7733411e-06, No Iterations 1
GAMG:  Solving for p_rgh, Initial residual = 0.0018073902, Final residual = 6.1728047e-07, No Iterations 4
time step continuity errors : sum local = 3.9905037e-07, global = 1.9141485e-07, cumulative = 5.7195389e-06
ExecutionTime = 2.15 s  ClockTime = 2 s
fluid  Inflow      : 2.41318e-08 [kg/s]
fluid  Outflow     : 2.429144e-08 [kg/s]
fluid  EnergyInflow  : 0.0071300348 [W]
fluid  EnergyOutflow : 0.0071803341 [W]
fluid  rho max/avg/min : 1.2016453 1.1994948 1.1852295
fluid  T   max/avg/min : 297.71678 294.2043 293.69999
fluid  P   max/avg/min : 101324.91 101316.16 101307.41
fluid  Prg max/avg/min : 101325 101324.98 101324.76
fluid  U   max/avg/min : 0.0025001467 7.0247388e-05 0
fluid  K average:  0.026486673
fluid  nu average: 1.5154559e-05

Solving for solid region cilcen
DICPCG:  Solving for h, Initial residual = 0.99961225, Final residual = 1.6764128e-16, No Iterations 1
Tcilcen  max/avg/min : 298.20138 298.20134 298.19924
ExecutionTime = 2.15 s  ClockTime = 2 s

Time = 22


Solving for fluid region fluid
DILUPBiCG:  Solving for Ux, Initial residual = 0.038458376, Final residual = 2.0767916e-05, No Iterations 1
DILUPBiCG:  Solving for Uy, Initial residual = 1.7766243e-05, Final residual = 7.98019e-09, No Iterations 1
DILUPBiCG:  Solving for Uz, Initial residual = 0.076779818, Final residual = 4.6222413e-05, No Iterations 1
DILUPBiCG:  Solving for h, Initial residual = 0.024955155, Final residual = 5.9247191e-06, No Iterations 1
GAMG:  Solving for p_rgh, Initial residual = 0.0016775933, Final residual = 6.3757584e-07, No Iterations 4
time step continuity errors : sum local = 4.3528209e-07, global = 2.0234316e-07, cumulative = 5.9218821e-06
ExecutionTime = 2.2 s  ClockTime = 2 s
fluid  Inflow      : 3.0734506e-08 [kg/s]
fluid  Outflow     : 3.090326e-08 [kg/s]
fluid  EnergyInflow  : 0.0090808847 [W]
fluid  EnergyOutflow : 0.0091344307 [W]
fluid  rho max/avg/min : 1.2016453 1.1993636 1.1846053
fluid  T   max/avg/min : 297.87371 294.23681 293.69999
fluid  P   max/avg/min : 101324.91 101316.16 101307.41
fluid  Prg max/avg/min : 101325 101324.98 101324.75
fluid  U   max/avg/min : 0.0026587137 8.1532365e-05 0
fluid  K average:  0.02648893
fluid  nu average: 1.5157537e-05

Solving for solid region cilcen
DICPCG:  Solving for h, Initial residual = 0.9995569, Final residual = 1.8347529e-16, No Iterations 1
Tcilcen  max/avg/min : 298.35811 298.35807 298.35575
ExecutionTime = 2.2 s  ClockTime = 2 s

Time = 23


Solving for fluid region fluid
DILUPBiCG:  Solving for Ux, Initial residual = 0.037639087, Final residual = 2.143842e-05, No Iterations 1
DILUPBiCG:  Solving for Uy, Initial residual = 2.2169688e-05, Final residual = 1.0196633e-08, No Iterations 1
DILUPBiCG:  Solving for Uz, Initial residual = 0.078801099, Final residual = 5.2981565e-05, No Iterations 1
DILUPBiCG:  Solving for h, Initial residual = 0.023887848, Final residual = 6.0875805e-06, No Iterations 1
GAMG:  Solving for p_rgh, Initial residual = 0.0016342244, Final residual = 6.8622692e-07, No Iterations 4
time step continuity errors : sum local = 4.9758623e-07, global = 2.2875789e-07, cumulative = 6.15064e-06
ExecutionTime = 2.25 s  ClockTime = 3 s
fluid  Inflow      : 3.8830143e-08 [kg/s]
fluid  Outflow     : 3.9020927e-08 [kg/s]
fluid  EnergyInflow  : 0.011472839 [W]
fluid  EnergyOutflow : 0.011533525 [W]
fluid  rho max/avg/min : 1.2016453 1.1992306 1.1839898
fluid  T   max/avg/min : 298.02864 294.26975 293.69999
fluid  P   max/avg/min : 101324.91 101316.16 101307.41
fluid  Prg max/avg/min : 101325 101324.98 101324.74
fluid  U   max/avg/min : 0.0028296856 9.4244259e-05 0
fluid  K average:  0.026491218
fluid  nu average: 1.5160557e-05

Solving for solid region cilcen
DICPCG:  Solving for h, Initial residual = 0.99949647, Final residual = 1.7501418e-16, No Iterations 1
Tcilcen  max/avg/min : 298.51286 298.51281 298.51025
ExecutionTime = 2.25 s  ClockTime = 3 s

Time = 24


Solving for fluid region fluid
DILUPBiCG:  Solving for Ux, Initial residual = 0.036957057, Final residual = 2.2387218e-05, No Iterations 1
DILUPBiCG:  Solving for Uy, Initial residual = 2.5347585e-05, Final residual = 1.3455458e-08, No Iterations 1
DILUPBiCG:  Solving for Uz, Initial residual = 0.080908091, Final residual = 5.9989531e-05, No Iterations 1
DILUPBiCG:  Solving for h, Initial residual = 0.022917486, Final residual = 6.2697202e-06, No Iterations 1
GAMG:  Solving for p_rgh, Initial residual = 0.0015838267, Final residual = 7.2851729e-07, No Iterations 4
time step continuity errors : sum local = 5.4985198e-07, global = 2.5341071e-07, cumulative = 6.4040507e-06
ExecutionTime = 2.3 s  ClockTime = 3 s
fluid  Inflow      : 4.8649013e-08 [kg/s]
fluid  Outflow     : 4.8860358e-08 [kg/s]
fluid  EnergyInflow  : 0.014373945 [W]
fluid  EnergyOutflow : 0.01444142 [W]
fluid  rho max/avg/min : 1.2016453 1.199096 1.1833825
fluid  T   max/avg/min : 298.18168 294.30312 293.69999
fluid  P   max/avg/min : 101324.91 101316.16 101307.41
fluid  Prg max/avg/min : 101325 101324.98 101324.73
fluid  U   max/avg/min : 0.0030006882 0.00010852566 0
fluid  K average:  0.026493534
fluid  nu average: 1.5163615e-05

Solving for solid region cilcen
DICPCG:  Solving for h, Initial residual = 0.99943072, Final residual = 1.0253119e-16, No Iterations 1
Tcilcen  max/avg/min : 298.66571 298.66565 298.66285
ExecutionTime = 2.3 s  ClockTime = 3 s

Time = 25


Solving for fluid region fluid
DILUPBiCG:  Solving for Ux, Initial residual = 0.036053417, Final residual = 2.2661945e-05, No Iterations 1
DILUPBiCG:  Solving for Uy, Initial residual = 2.9132652e-05, Final residual = 1.6892385e-08, No Iterations 1
DILUPBiCG:  Solving for Uz, Initial residual = 0.083219582, Final residual = 6.7490578e-05, No Iterations 1
DILUPBiCG:  Solving for h, Initial residual = 0.022029358, Final residual = 6.4679262e-06, No Iterations 1
GAMG:  Solving for p_rgh, Initial residual = 0.00152104, Final residual = 7.7678324e-07, No Iterations 4
time step continuity errors : sum local = 6.2037843e-07, global = 2.7904448e-07, cumulative = 6.6830952e-06
ExecutionTime = 2.35 s  ClockTime = 3 s
fluid  Inflow      : 6.0394372e-08 [kg/s]
fluid  Outflow     : 6.0627095e-08 [kg/s]
fluid  EnergyInflow  : 0.017844254 [W]
fluid  EnergyOutflow : 0.017918857 [W]
fluid  rho max/avg/min : 1.2016453 1.1989599 1.1827828
fluid  T   max/avg/min : 298.33292 294.33688 293.69998
fluid  P   max/avg/min : 101324.91 101316.16 101307.41
fluid  Prg max/avg/min : 101325 101324.98 101324.72
fluid  U   max/avg/min : 0.0031716248 0.00012451155 0
fluid  K average:  0.026495878
fluid  nu average: 1.516671e-05

Solving for solid region cilcen
DICPCG:  Solving for h, Initial residual = 0.99935936, Final residual = 1.0213033e-16, No Iterations 1
Tcilcen  max/avg/min : 298.81676 298.81671 298.81364
ExecutionTime = 2.35 s  ClockTime = 3 s

Time = 26


Solving for fluid region fluid
DILUPBiCG:  Solving for Ux, Initial residual = 0.035374623, Final residual = 2.3647794e-05, No Iterations 1
DILUPBiCG:  Solving for Uy, Initial residual = 3.1734015e-05, Final residual = 1.7880519e-08, No Iterations 1
DILUPBiCG:  Solving for Uz, Initial residual = 0.085399491, Final residual = 7.4831399e-05, No Iterations 1
DILUPBiCG:  Solving for h, Initial residual = 0.021211192, Final residual = 6.676124e-06, No Iterations 1
GAMG:  Solving for p_rgh, Initial residual = 0.0014748811, Final residual = 8.2583564e-07, No Iterations 4
time step continuity errors : sum local = 6.9740231e-07, global = 3.0647675e-07, cumulative = 6.9895719e-06
ExecutionTime = 2.4 s  ClockTime = 3 s
fluid  Inflow      : 7.4265582e-08 [kg/s]
fluid  Outflow     : 7.4521183e-08 [kg/s]
fluid  EnergyInflow  : 0.021942672 [W]
fluid  EnergyOutflow : 0.022024949 [W]
fluid  rho max/avg/min : 1.2016453 1.1988222 1.1821903
fluid  T   max/avg/min : 298.48245 294.37104 293.69998
fluid  P   max/avg/min : 101324.91 101316.16 101307.41
fluid  Prg max/avg/min : 101325 101324.98 101324.72
fluid  U   max/avg/min : 0.0033506202 0.00014233922 0
fluid  K average:  0.026498249
fluid  nu average: 1.5169842e-05

Solving for solid region cilcen
DICPCG:  Solving for h, Initial residual = 0.99928213, Final residual = 1.1277965e-16, No Iterations 1
Tcilcen  max/avg/min : 298.96612 298.96605 298.96271
ExecutionTime = 2.4 s  ClockTime = 3 s

Time = 27


Solving for fluid region fluid
DILUPBiCG:  Solving for Ux, Initial residual = 0.034487933, Final residual = 2.4121858e-05, No Iterations 1
DILUPBiCG:  Solving for Uy, Initial residual = 4.0522501e-05, Final residual = 2.5620078e-08, No Iterations 1
DILUPBiCG:  Solving for Uz, Initial residual = 0.08754662, Final residual = 8.2142376e-05, No Iterations 1
DILUPBiCG:  Solving for h, Initial residual = 0.020458354, Final residual = 6.8960307e-06, No Iterations 1
GAMG:  Solving for p_rgh, Initial residual = 0.0014316777, Final residual = 8.6653307e-07, No Iterations 4
time step continuity errors : sum local = 7.6080007e-07, global = 3.1857541e-07, cumulative = 7.3081473e-06
ExecutionTime = 2.45 s  ClockTime = 3 s
fluid  Inflow      : 9.0461374e-08 [kg/s]
fluid  Outflow     : 9.0727066e-08 [kg/s]
fluid  EnergyInflow  : 0.026727917 [W]
fluid  EnergyOutflow : 0.026814205 [W]
fluid  rho max/avg/min : 1.2016453 1.1986831 1.1816049
fluid  T   max/avg/min : 298.63036 294.40558 293.69997
fluid  P   max/avg/min : 101324.91 101316.16 101307.41
fluid  Prg max/avg/min : 101325 101324.98 101324.71
fluid  U   max/avg/min : 0.003539893 0.00016214573 0
fluid  K average:  0.026500646
fluid  nu average: 1.5173009e-05

Solving for solid region cilcen
DICPCG:  Solving for h, Initial residual = 0.99919872, Final residual = 1.2680798e-16, No Iterations 1
Tcilcen  max/avg/min : 299.11385 299.11378 299.11015
ExecutionTime = 2.45 s  ClockTime = 3 s

Time = 28


Solving for fluid region fluid
DILUPBiCG:  Solving for Ux, Initial residual = 0.033682413, Final residual = 2.4725396e-05, No Iterations 1
DILUPBiCG:  Solving for Uy, Initial residual = 4.7388419e-05, Final residual = 2.8106928e-08, No Iterations 1
DILUPBiCG:  Solving for Uz, Initial residual = 0.089484008, Final residual = 8.9179552e-05, No Iterations 1
DILUPBiCG:  Solving for h, Initial residual = 0.019758679, Final residual = 7.1264464e-06, No Iterations 1
GAMG:  Solving for p_rgh, Initial residual = 0.0014136748, Final residual = 9.216007e-07, No Iterations 4
time step continuity errors : sum local = 8.491892e-07, global = 3.361972e-07, cumulative = 7.6443445e-06
ExecutionTime = 2.5 s  ClockTime = 3 s
fluid  Inflow      : 1.0912497e-07 [kg/s]
fluid  Outflow     : 1.0940536e-07 [kg/s]
fluid  EnergyInflow  : 0.032242304 [W]
fluid  EnergyOutflow : 0.03233409 [W]
fluid  rho max/avg/min : 1.2016453 1.1985426 1.1810262
fluid  T   max/avg/min : 298.77673 294.44048 293.69997
fluid  P   max/avg/min : 101324.91 101316.16 101307.41
fluid  Prg max/avg/min : 101325 101324.98 101324.7
fluid  U   max/avg/min : 0.0037296643 0.00018405483 0
fluid  K average:  0.026503068
fluid  nu average: 1.517621e-05

Solving for solid region cilcen
DICPCG:  Solving for h, Initial residual = 0.99910884, Final residual = 1.9619178e-16, No Iterations 1
Tcilcen  max/avg/min : 299.26003 299.25996 299.25602
ExecutionTime = 2.5 s  ClockTime = 3 s

Time = 29


Solving for fluid region fluid
DILUPBiCG:  Solving for Ux, Initial residual = 0.032717638, Final residual = 2.4900281e-05, No Iterations 1
DILUPBiCG:  Solving for Uy, Initial residual = 5.1744038e-05, Final residual = 3.1880043e-08, No Iterations 1
DILUPBiCG:  Solving for Uz, Initial residual = 0.091169973, Final residual = 4.290328e-08, No Iterations 2
DILUPBiCG:  Solving for h, Initial residual = 0.019109885, Final residual = 7.3683073e-06, No Iterations 1
GAMG:  Solving for p_rgh, Initial residual = 0.0013895971, Final residual = 9.5929083e-07, No Iterations 4
time step continuity errors : sum local = 9.1862439e-07, global = 3.3593262e-07, cumulative = 7.9802771e-06
ExecutionTime = 2.55 s  ClockTime = 3 s
fluid  Inflow      : 1.3040758e-07 [kg/s]
fluid  Outflow     : 1.3068774e-07 [kg/s]
fluid  EnergyInflow  : 0.038530509 [W]
fluid  EnergyOutflow : 0.038623524 [W]
fluid  rho max/avg/min : 1.2016453 1.1984007 1.1804539
fluid  T   max/avg/min : 298.92161 294.47574 293.69996
fluid  P   max/avg/min : 101324.91 101316.16 101307.41
fluid  Prg max/avg/min : 101325 101324.98 101324.69
fluid  U   max/avg/min : 0.0039197755 0.00020818663 0
fluid  K average:  0.026505514
fluid  nu average: 1.5179444e-05

Solving for solid region cilcen
DICPCG:  Solving for h, Initial residual = 0.99901218, Final residual = 7.6950186e-17, No Iterations 1
Tcilcen  max/avg/min : 299.40474 299.40466 299.4004
ExecutionTime = 2.55 s  ClockTime = 3 s

Time = 30


Solving for fluid region fluid
DILUPBiCG:  Solving for Ux, Initial residual = 0.031903827, Final residual = 2.5490579e-05, No Iterations 1
DILUPBiCG:  Solving for Uy, Initial residual = 7.1124439e-05, Final residual = 4.6451219e-08, No Iterations 1
DILUPBiCG:  Solving for Uz, Initial residual = 0.092751199, Final residual = 4.6618426e-08, No Iterations 2
DILUPBiCG:  Solving for h, Initial residual = 0.018507224, Final residual = 7.6222385e-06, No Iterations 1
GAMG:  Solving for p_rgh, Initial residual = 0.0013847853, Final residual = 1.0104658e-06, No Iterations 4
time step continuity errors : sum local = 1.0130418e-06, global = 3.3615583e-07, cumulative = 8.316433e-06
ExecutionTime = 2.6 s  ClockTime = 3 s
fluid  Inflow      : 1.5439004e-07 [kg/s]
fluid  Outflow     : 1.546704e-07 [kg/s]
fluid  EnergyInflow  : 0.045616422 [W]
fluid  EnergyOutflow : 0.045710936 [W]
fluid  rho max/avg/min : 1.2016453 1.1982575 1.1798878
fluid  T   max/avg/min : 299.06507 294.51134 293.69995
fluid  P   max/avg/min : 101324.91 101316.16 101307.41
fluid  Prg max/avg/min : 101325 101324.98 101324.68
fluid  U   max/avg/min : 0.0041256917 0.00023465154 0
fluid  K average:  0.026507984
fluid  nu average: 1.518271e-05

Solving for solid region cilcen
DICPCG:  Solving for h, Initial residual = 0.99890772, Final residual = 9.7505855e-17, No Iterations 1
Tcilcen  max/avg/min : 299.54803 299.54794 299.54335
ExecutionTime = 2.6 s  ClockTime = 3 s

Time = 31


Solving for fluid region fluid
DILUPBiCG:  Solving for Ux, Initial residual = 0.030993223, Final residual = 2.5858496e-05, No Iterations 1
DILUPBiCG:  Solving for Uy, Initial residual = 6.7064678e-05, Final residual = 5.0398553e-08, No Iterations 1
DILUPBiCG:  Solving for Uz, Initial residual = 0.094019172, Final residual = 5.0381027e-08, No Iterations 2
DILUPBiCG:  Solving for h, Initial residual = 0.017945555, Final residual = 7.8885049e-06, No Iterations 1
GAMG:  Solving for p_rgh, Initial residual = 0.0013755011, Final residual = 1.0486074e-06, No Iterations 4
time step continuity errors : sum local = 1.094249e-06, global = 3.1279526e-07, cumulative = 8.6292282e-06
ExecutionTime = 2.65 s  ClockTime = 3 s
fluid  Inflow      : 1.8116067e-07 [kg/s]
fluid  Outflow     : 1.8142154e-07 [kg/s]
fluid  EnergyInflow  : 0.053526129 [W]
fluid  EnergyOutflow : 0.053616493 [W]
fluid  rho max/avg/min : 1.2016453 1.198113 1.1793276
fluid  T   max/avg/min : 299.20718 294.54727 293.69995
fluid  P   max/avg/min : 101324.91 101316.16 101307.41
fluid  Prg max/avg/min : 101325 101324.97 101324.67
fluid  U   max/avg/min : 0.0043347231 0.00026355557 0
fluid  K average:  0.026510477
fluid  nu average: 1.5186007e-05

Solving for solid region cilcen
DICPCG:  Solving for h, Initial residual = 0.99879563, Final residual = 1.100651e-16, No Iterations 1
Tcilcen  max/avg/min : 299.68997 299.68987 299.68493
ExecutionTime = 2.65 s  ClockTime = 3 s

Time = 32


Solving for fluid region fluid
DILUPBiCG:  Solving for Ux, Initial residual = 0.030283654, Final residual = 2.6189144e-05, No Iterations 1
DILUPBiCG:  Solving for Uy, Initial residual = 7.3837753e-05, Final residual = 5.3508484e-08, No Iterations 1
DILUPBiCG:  Solving for Uz, Initial residual = 0.095120181, Final residual = 5.4237671e-08, No Iterations 2
DILUPBiCG:  Solving for h, Initial residual = 0.017417699, Final residual = 8.1662357e-06, No Iterations 1
GAMG:  Solving for p_rgh, Initial residual = 0.0013742375, Final residual = 1.0968943e-06, No Iterations 4
time step continuity errors : sum local = 1.1919767e-06, global = 2.8277797e-07, cumulative = 8.9120062e-06
ExecutionTime = 2.71 s  ClockTime = 3 s
fluid  Inflow      : 2.107445e-07 [kg/s]
fluid  Outflow     : 2.1098034e-07 [kg/s]
fluid  EnergyInflow  : 0.062267033 [W]
fluid  EnergyOutflow : 0.062351782 [W]
fluid  rho max/avg/min : 1.2016453 1.1979673 1.1787731
fluid  T   max/avg/min : 299.34798 294.58352 293.69994
fluid  P   max/avg/min : 101324.91 101316.16 101307.41
fluid  Prg max/avg/min : 101325 101324.97 101324.67
fluid  U   max/avg/min : 0.0045445966 0.00029498916 0
fluid  K average:  0.026512991
fluid  nu average: 1.5189334e-05

Solving for solid region cilcen
DICPCG:  Solving for h, Initial residual = 0.99867559, Final residual = 1.0766668e-16, No Iterations 1
Tcilcen  max/avg/min : 299.83061 299.83049 299.82519
ExecutionTime = 2.71 s  ClockTime = 3 s

Time = 33


Solving for fluid region fluid
DILUPBiCG:  Solving for Ux, Initial residual = 0.029301811, Final residual = 2.644224e-05, No Iterations 1
DILUPBiCG:  Solving for Uy, Initial residual = 0.00010136582, Final residual = 6.5564657e-08, No Iterations 1
DILUPBiCG:  Solving for Uz, Initial residual = 0.096167469, Final residual = 5.8301918e-08, No Iterations 2
DILUPBiCG:  Solving for h, Initial residual = 0.016923573, Final residual = 8.4612394e-06, No Iterations 1
GAMG:  Solving for p_rgh, Initial residual = 0.0013916454, Final residual = 1.1125073e-06, No Iterations 4
time step continuity errors : sum local = 1.2534211e-06, global = 2.377358e-07, cumulative = 9.149742e-06
ExecutionTime = 2.75 s  ClockTime = 3 s
fluid  Inflow      : 2.4316575e-07 [kg/s]
fluid  Outflow     : 2.4336402e-07 [kg/s]
fluid  EnergyInflow  : 0.071846286 [W]
fluid  EnergyOutflow : 0.071921903 [W]
fluid  rho max/avg/min : 1.2016453 1.1978203 1.178224
fluid  T   max/avg/min : 299.48754 294.62009 293.69993
fluid  P   max/avg/min : 101324.91 101316.16 101307.41
fluid  Prg max/avg/min : 101325 101324.97 101324.66
fluid  U   max/avg/min : 0.0047658785 0.00032904125 0
fluid  K average:  0.026515528
fluid  nu average: 1.519269e-05

Solving for solid region cilcen
DICPCG:  Solving for h, Initial residual = 0.99854721, Final residual = 1.1197407e-16, No Iterations 1
Tcilcen  max/avg/min : 299.96999 299.96987 299.96418
ExecutionTime = 2.75 s  ClockTime = 3 s

Time = 34


Solving for fluid region fluid
DILUPBiCG:  Solving for Ux, Initial residual = 0.028683053, Final residual = 2.7210789e-05, No Iterations 1
DILUPBiCG:  Solving for Uy, Initial residual = 0.00010727404, Final residual = 8.4318969e-08, No Iterations 1
DILUPBiCG:  Solving for Uz, Initial residual = 0.09718762, Final residual = 6.2580985e-08, No Iterations 2
DILUPBiCG:  Solving for h, Initial residual = 0.016458441, Final residual = 8.7888183e-06, No Iterations 1
GAMG:  Solving for p_rgh, Initial residual = 0.0014013441, Final residual = 1.1354218e-06, No Iterations 4
time step continuity errors : sum local = 1.3242759e-06, global = 1.9397213e-07, cumulative = 9.3437141e-06
ExecutionTime = 2.81 s  ClockTime = 3 s
fluid  Inflow      : 2.784216e-07 [kg/s]
fluid  Outflow     : 2.7858337e-07 [kg/s]
fluid  EnergyInflow  : 0.082263059 [W]
fluid  EnergyOutflow : 0.082330058 [W]
fluid  rho max/avg/min : 1.2016454 1.1976723 1.1776802
fluid  T   max/avg/min : 299.62589 294.65697 293.69993
fluid  P   max/avg/min : 101324.91 101316.16 101307.41
fluid  Prg max/avg/min : 101325 101324.97 101324.65
fluid  U   max/avg/min : 0.004994928 0.00036579469 0
fluid  K average:  0.026518085
fluid  nu average: 1.5196075e-05

Solving for solid region cilcen
DICPCG:  Solving for h, Initial residual = 0.99841011, Final residual = 9.7499888e-17, No Iterations 1
Tcilcen  max/avg/min : 300.10818 300.10804 300.10195
ExecutionTime = 2.81 s  ClockTime = 3 s

Time = 35


Solving for fluid region fluid
DILUPBiCG:  Solving for Ux, Initial residual = 0.027522427, Final residual = 2.7346442e-05, No Iterations 1
DILUPBiCG:  Solving for Uy, Initial residual = 0.00011599129, Final residual = 9.5586595e-08, No Iterations 1
DILUPBiCG:  Solving for Uz, Initial residual = 0.098072075, Final residual = 6.6942504e-08, No Iterations 2
DILUPBiCG:  Solving for h, Initial residual = 0.016019405, Final residual = 9.1367484e-06, No Iterations 1
GAMG:  Solving for p_rgh, Initial residual = 0.00142791, Final residual = 1.1139697e-06, No Iterations 4
time step continuity errors : sum local = 1.3419821e-06, global = 1.4018277e-07, cumulative = 9.4838969e-06
ExecutionTime = 2.87 s  ClockTime = 3 s
fluid  Inflow      : 3.1653774e-07 [kg/s]
fluid  Outflow     : 3.1665465e-07 [kg/s]
fluid  EnergyInflow  : 0.093524937 [W]
fluid  EnergyOutflow : 0.093581057 [W]
fluid  rho max/avg/min : 1.2016454 1.1975231 1.1771414
fluid  T   max/avg/min : 299.76308 294.69414 293.69992
fluid  P   max/avg/min : 101324.91 101316.16 101307.41
fluid  Prg max/avg/min : 101325 101324.97 101324.64
fluid  U   max/avg/min : 0.00522519 0.00040533838 0
fluid  K average:  0.026520662
fluid  nu average: 1.5199488e-05

Solving for solid region cilcen
DICPCG:  Solving for h, Initial residual = 0.99826386, Final residual = 1.9827728e-16, No Iterations 1
Tcilcen  max/avg/min : 300.2452 300.24506 300.23854
ExecutionTime = 2.87 s  ClockTime = 3 s

Time = 36


Solving for fluid region fluid
DILUPBiCG:  Solving for Ux, Initial residual = 0.026952002, Final residual = 5.5131184e-08, No Iterations 2
DILUPBiCG:  Solving for Uy, Initial residual = 0.00012708402, Final residual = 9.2003507e-08, No Iterations 1
DILUPBiCG:  Solving for Uz, Initial residual = 0.098692934, Final residual = 7.1470551e-08, No Iterations 2
DILUPBiCG:  Solving for h, Initial residual = 0.015605867, Final residual = 9.5086006e-06, No Iterations 1
GAMG:  Solving for p_rgh, Initial residual = 0.00146785, Final residual = 1.1034059e-06, No Iterations 4
time step continuity errors : sum local = 1.367814e-06, global = 1.1050697e-07, cumulative = 9.5944039e-06
ExecutionTime = 2.93 s  ClockTime = 3 s
fluid  Inflow      : 3.5752704e-07 [kg/s]
fluid  Outflow     : 3.576192e-07 [kg/s]
fluid  EnergyInflow  : 0.10563573 [W]
fluid  EnergyOutflow : 0.10568713 [W]
fluid  rho max/avg/min : 1.2016454 1.1973728 1.1766076
fluid  T   max/avg/min : 299.89915 294.7316 293.69992
fluid  P   max/avg/min : 101324.91 101316.16 101307.41
fluid  Prg max/avg/min : 101325 101324.97 101324.63
fluid  U   max/avg/min : 0.0054678209 0.0004477688 0
fluid  K average:  0.02652326
fluid  nu average: 1.5202928e-05

Solving for solid region cilcen
DICPCG:  Solving for h, Initial residual = 0.99810806, Final residual = 1.1988537e-16, No Iterations 1
Tcilcen  max/avg/min : 300.38111 300.38096 300.374
ExecutionTime = 2.93 s  ClockTime = 3 s

Time = 37


Solving for fluid region fluid
DILUPBiCG:  Solving for Ux, Initial residual = 0.026215492, Final residual = 5.5757373e-08, No Iterations 2
DILUPBiCG:  Solving for Uy, Initial residual = 0.00015530168, Final residual = 1.3132498e-07, No Iterations 1
DILUPBiCG:  Solving for Uz, Initial residual = 0.09925827, Final residual = 7.6238695e-08, No Iterations 2
DILUPBiCG:  Solving for h, Initial residual = 0.015215619, Final residual = 9.9426363e-06, No Iterations 1
GAMG:  Solving for p_rgh, Initial residual = 0.0014953641, Final residual = 1.044758e-06, No Iterations 4
time step continuity errors : sum local = 1.3384896e-06, global = 6.7861542e-08, cumulative = 9.6622654e-06
ExecutionTime = 2.99 s  ClockTime = 3 s
fluid  Inflow      : 4.0150279e-07 [kg/s]
fluid  Outflow     : 4.0155939e-07 [kg/s]
fluid  EnergyInflow  : 0.1186289 [W]
fluid  EnergyOutflow : 0.11867262 [W]
fluid  rho max/avg/min : 1.2016454 1.1972214 1.1760785
fluid  T   max/avg/min : 300.03414 294.76934 293.69991
fluid  P   max/avg/min : 101324.91 101316.16 101307.41
fluid  Prg max/avg/min : 101325 101324.97 101324.63
fluid  U   max/avg/min : 0.0057176837 0.000493198 0
fluid  K average:  0.026525876
fluid  nu average: 1.5206393e-05

Solving for solid region cilcen
DICPCG:  Solving for h, Initial residual = 0.99794225, Final residual = 1.0327918e-16, No Iterations 1
Tcilcen  max/avg/min : 300.51594 300.51578 300.50836
ExecutionTime = 2.99 s  ClockTime = 3 s

Time = 38


Solving for fluid region fluid
DILUPBiCG:  Solving for Ux, Initial residual = 0.025327142, Final residual = 5.852802e-08, No Iterations 2
DILUPBiCG:  Solving for Uy, Initial residual = 0.0001638106, Final residual = 1.5189062e-07, No Iterations 1
DILUPBiCG:  Solving for Uz, Initial residual = 0.099974151, Final residual = 8.188453e-08, No Iterations 2
DILUPBiCG:  Solving for h, Initial residual = 0.01484667, Final residual = 1.0425372e-05, No Iterations 1
GAMG:  Solving for p_rgh, Initial residual = 0.0015113308, Final residual = 1.0149226e-06, No Iterations 4
time step continuity errors : sum local = 1.3444394e-06, global = 5.4882383e-08, cumulative = 9.7171478e-06
ExecutionTime = 3.05 s  ClockTime = 3 s
fluid  Inflow      : 4.4857026e-07 [kg/s]
fluid  Outflow     : 4.4861603e-07 [kg/s]
fluid  EnergyInflow  : 0.13253556 [W]
fluid  EnergyOutflow : 0.13257914 [W]
fluid  rho max/avg/min : 1.2016454 1.197069 1.175554
fluid  T   max/avg/min : 300.16809 294.80735 293.69991
fluid  P   max/avg/min : 101324.91 101316.16 101307.41
fluid  Prg max/avg/min : 101325 101324.97 101324.62
fluid  U   max/avg/min : 0.0059690494 0.00054175963 0
fluid  K average:  0.026528511
fluid  nu average: 1.5209885e-05

Solving for solid region cilcen
DICPCG:  Solving for h, Initial residual = 0.99776598, Final residual = 1.0403112e-16, No Iterations 1
Tcilcen  max/avg/min : 300.64973 300.64955 300.64166
ExecutionTime = 3.05 s  ClockTime = 3 s

Time = 39


Solving for fluid region fluid
DILUPBiCG:  Solving for Ux, Initial residual = 0.024481215, Final residual = 6.2651993e-08, No Iterations 2
DILUPBiCG:  Solving for Uy, Initial residual = 0.00016271795, Final residual = 1.4817028e-07, No Iterations 1
DILUPBiCG:  Solving for Uz, Initial residual = 0.10090192, Final residual = 8.8567483e-08, No Iterations 2
DILUPBiCG:  Solving for h, Initial residual = 0.014496126, Final residual = 1.0947935e-05, No Iterations 1
GAMG:  Solving for p_rgh, Initial residual = 0.0015517758, Final residual = 9.9619359e-07, No Iterations 4
time step continuity errors : sum local = 1.3446756e-06, global = 3.7770857e-08, cumulative = 9.7549187e-06
ExecutionTime = 3.09 s  ClockTime = 3 s
fluid  Inflow      : 4.9897071e-07 [kg/s]
fluid  Outflow     : 4.9900221e-07 [kg/s]
fluid  EnergyInflow  : 0.14742698 [W]
fluid  EnergyOutflow : 0.14746967 [W]
fluid  rho max/avg/min : 1.2016454 1.1969156 1.1750338
fluid  T   max/avg/min : 300.30103 294.84563 293.69991
fluid  P   max/avg/min : 101324.91 101316.16 101307.41
fluid  Prg max/avg/min : 101325 101324.97 101324.61
fluid  U   max/avg/min : 0.0062379417 0.00059361607 0
fluid  K average:  0.026531164
fluid  nu average: 1.5213401e-05

Solving for solid region cilcen
DICPCG:  Solving for h, Initial residual = 0.99757878, Final residual = 9.766437e-17, No Iterations 1
Tcilcen  max/avg/min : 300.78251 300.78232 300.77393
ExecutionTime = 3.09 s  ClockTime = 3 s

Time = 40


Solving for fluid region fluid
DILUPBiCG:  Solving for Ux, Initial residual = 0.023813403, Final residual = 6.6918556e-08, No Iterations 2
DILUPBiCG:  Solving for Uy, Initial residual = 0.00018235268, Final residual = 1.7436388e-07, No Iterations 1
DILUPBiCG:  Solving for Uz, Initial residual = 0.10201522, Final residual = 9.6270294e-08, No Iterations 2
DILUPBiCG:  Solving for h, Initial residual = 0.014162481, Final residual = 1.1889541e-05, No Iterations 1
GAMG:  Solving for p_rgh, Initial residual = 0.0015818958, Final residual = 9.8613137e-07, No Iterations 4
time step continuity errors : sum local = 1.3735493e-06, global = 4.1954162e-08, cumulative = 9.7968728e-06
ExecutionTime = 3.15 s  ClockTime = 3 s
fluid  Inflow      : 5.5298729e-07 [kg/s]
fluid  Outflow     : 5.5302228e-07 [kg/s]
fluid  EnergyInflow  : 0.16338684 [W]
fluid  EnergyOutflow : 0.16343412 [W]
fluid  rho max/avg/min : 1.2016454 1.1967613 1.1745178
fluid  T   max/avg/min : 300.43299 294.88417 293.69991
fluid  P   max/avg/min : 101324.91 101316.16 101307.41
fluid  Prg max/avg/min : 101325 101324.96 101324.6
fluid  U   max/avg/min : 0.0065093658 0.00064896367 0
fluid  K average:  0.026533835
fluid  nu average: 1.5216942e-05

Solving for solid region cilcen
DICPCG:  Solving for h, Initial residual = 0.99738015, Final residual = 1.0012441e-16, No Iterations 1
Tcilcen  max/avg/min : 300.91432 300.91411 300.9052
ExecutionTime = 3.15 s  ClockTime = 3 s

Time = 41


Solving for fluid region fluid
DILUPBiCG:  Solving for Ux, Initial residual = 0.023305697, Final residual = 7.3518406e-08, No Iterations 2
DILUPBiCG:  Solving for Uy, Initial residual = 0.00018015093, Final residual = 1.6410393e-07, No Iterations 1
DILUPBiCG:  Solving for Uz, Initial residual = 0.10338408, Final residual = 1.0527097e-07, No Iterations 2
DILUPBiCG:  Solving for h, Initial residual = 0.01384548, Final residual = 1.2954728e-05, No Iterations 1
GAMG:  Solving for p_rgh, Initial residual = 0.0016040874, Final residual = 1.0070953e-06, No Iterations 4
time step continuity errors : sum local = 1.4445448e-06, global = 3.7180205e-08, cumulative = 9.834053e-06
ExecutionTime = 3.2 s  ClockTime = 3 s
fluid  Inflow      : 6.1104881e-07 [kg/s]
fluid  Outflow     : 6.1107982e-07 [kg/s]
fluid  EnergyInflow  : 0.18054183 [W]
fluid  EnergyOutflow : 0.18059176 [W]
fluid  rho max/avg/min : 1.2016454 1.1966059 1.174006
fluid  T   max/avg/min : 300.56401 294.92296 293.69991
fluid  P   max/avg/min : 101324.91 101316.16 101307.41
fluid  Prg max/avg/min : 101325 101324.96 101324.6
fluid  U   max/avg/min : 0.0067895656 0.00070803452 0
fluid  K average:  0.026536523
fluid  nu average: 1.5220506e-05

Solving for solid region cilcen
DICPCG:  Solving for h, Initial residual = 0.99716957, Final residual = 1.00795e-16, No Iterations 1
Tcilcen  max/avg/min : 301.04518 301.04496 301.0355
ExecutionTime = 3.2 s  ClockTime = 3 s

Time = 42


Solving for fluid region fluid
DILUPBiCG:  Solving for Ux, Initial residual = 0.022359323, Final residual = 7.3128495e-08, No Iterations 2
DILUPBiCG:  Solving for Uy, Initial residual = 0.00018180009, Final residual = 1.5747093e-07, No Iterations 1
DILUPBiCG:  Solving for Uz, Initial residual = 0.10484941, Final residual = 1.1563592e-07, No Iterations 2
DILUPBiCG:  Solving for h, Initial residual = 0.013542289, Final residual = 1.5864577e-06, No Iterations 2
GAMG:  Solving for p_rgh, Initial residual = 0.001626612, Final residual = 7.2250606e-07, No Iterations 5
time step continuity errors : sum local = 1.0625112e-06, global = 2.9117439e-07, cumulative = 1.0125227e-05
ExecutionTime = 3.25 s  ClockTime = 4 s
fluid  Inflow      : 6.7965675e-07 [kg/s]
fluid  Outflow     : 6.7989958e-07 [kg/s]
fluid  EnergyInflow  : 0.20081288 [W]
fluid  EnergyOutflow : 0.20092952 [W]
fluid  rho max/avg/min : 1.2016454 1.1964493 1.1734981
fluid  T   max/avg/min : 300.69412 294.96209 293.69991
fluid  P   max/avg/min : 101324.91 101316.16 101307.41
fluid  Prg max/avg/min : 101325 101324.96 101324.59
fluid  U   max/avg/min : 0.0070813672 0.00077331787 0
fluid  K average:  0.026539234
fluid  nu average: 1.5224102e-05

Solving for solid region cilcen
DICPCG:  Solving for h, Initial residual = 0.99694697, Final residual = 8.6946575e-17, No Iterations 1
Tcilcen  max/avg/min : 301.17514 301.1749 301.16488
ExecutionTime = 3.25 s  ClockTime = 4 s

Time = 43


Solving for fluid region fluid
DILUPBiCG:  Solving for Ux, Initial residual = 0.022890119, Final residual = 8.8952498e-08, No Iterations 2
DILUPBiCG:  Solving for Uy, Initial residual = 0.0002103217, Final residual = 4.0030283e-10, No Iterations 2
DILUPBiCG:  Solving for Uz, Initial residual = 0.11116097, Final residual = 1.4922603e-07, No Iterations 2
DILUPBiCG:  Solving for h, Initial residual = 0.013252228, Final residual = 1.8306101e-06, No Iterations 2
GAMG:  Solving for p_rgh, Initial residual = 0.0016671778, Final residual = 1.3086695e-06, No Iterations 4
time step continuity errors : sum local = 1.9665422e-06, global = 1.9733346e-07, cumulative = 1.0322561e-05
ExecutionTime = 3.3 s  ClockTime = 4 s
fluid  Inflow      : 7.5793283e-07 [kg/s]
fluid  Outflow     : 7.580974e-07 [kg/s]
fluid  EnergyInflow  : 0.2239405 [W]
fluid  EnergyOutflow : 0.22403846 [W]
fluid  rho max/avg/min : 1.2016454 1.1962918 1.1729942
fluid  T   max/avg/min : 300.82335 295.00147 293.69991
fluid  P   max/avg/min : 101324.91 101316.16 101307.41
fluid  Prg max/avg/min : 101325 101324.96 101324.58
fluid  U   max/avg/min : 0.0073753079 0.00084442983 0
fluid  K average:  0.026541963
fluid  nu average: 1.5227721e-05

Solving for solid region cilcen
DICPCG:  Solving for h, Initial residual = 0.99671006, Final residual = 1.9503434e-16, No Iterations 1
Tcilcen  max/avg/min : 301.30422 301.30396 301.29335
ExecutionTime = 3.3 s  ClockTime = 4 s

Time = 44


Solving for fluid region fluid
DILUPBiCG:  Solving for Ux, Initial residual = 0.022304818, Final residual = 9.4479714e-08, No Iterations 2
DILUPBiCG:  Solving for Uy, Initial residual = 0.00026824669, Final residual = 5.7274908e-10, No Iterations 2
DILUPBiCG:  Solving for Uz, Initial residual = 0.11360291, Final residual = 1.6915812e-07, No Iterations 2
DILUPBiCG:  Solving for h, Initial residual = 0.012974865, Final residual = 2.1661131e-06, No Iterations 2
GAMG:  Solving for p_rgh, Initial residual = 0.0016990393, Final residual = 5.7963443e-07, No Iterations 5
time step continuity errors : sum local = 8.9239944e-07, global = 2.868945e-07, cumulative = 1.0609455e-05
ExecutionTime = 3.36 s  ClockTime = 4 s
fluid  Inflow      : 8.4539573e-07 [kg/s]
fluid  Outflow     : 8.45635e-07 [kg/s]
fluid  EnergyInflow  : 0.24978248 [W]
fluid  EnergyOutflow : 0.24990723 [W]
fluid  rho max/avg/min : 1.2016454 1.1961334 1.172494
fluid  T   max/avg/min : 300.95173 295.04109 293.69992
fluid  P   max/avg/min : 101324.91 101316.16 101307.41
fluid  Prg max/avg/min : 101325 101324.96 101324.57
fluid  U   max/avg/min : 0.0076872321 0.00092163816 0
fluid  K average:  0.026544707
fluid  nu average: 1.5231363e-05

Solving for solid region cilcen
DICPCG:  Solving for h, Initial residual = 0.99645923, Final residual = 8.0690588e-17, No Iterations 1
Tcilcen  max/avg/min : 301.43244 301.43217 301.42094
ExecutionTime = 3.37 s  ClockTime = 4 s

Time = 45


Solving for fluid region fluid
DILUPBiCG:  Solving for Ux, Initial residual = 0.021989719, Final residual = 1.0977908e-07, No Iterations 2
DILUPBiCG:  Solving for Uy, Initial residual = 0.00029481096, Final residual = 6.1374226e-10, No Iterations 2
DILUPBiCG:  Solving for Uz, Initial residual = 0.11685282, Final residual = 1.9623571e-07, No Iterations 2
DILUPBiCG:  Solving for h, Initial residual = 0.012709248, Final residual = 2.5210928e-06, No Iterations 2
GAMG:  Solving for p_rgh, Initial residual = 0.0017557794, Final residual = 1.4721926e-06, No Iterations 4
time step continuity errors : sum local = 2.3031244e-06, global = 3.6504991e-07, cumulative = 1.0974505e-05
ExecutionTime = 3.41 s  ClockTime = 4 s
fluid  Inflow      : 9.4397114e-07 [kg/s]
fluid  Outflow     : 9.4427559e-07 [kg/s]
fluid  EnergyInflow  : 0.27890779 [W]
fluid  EnergyOutflow : 0.27905684 [W]
fluid  rho max/avg/min : 1.2016455 1.195974 1.1719975
fluid  T   max/avg/min : 301.07928 295.08094 293.69991
fluid  P   max/avg/min : 101324.91 101316.16 101307.41
fluid  Prg max/avg/min : 101325 101324.96 101324.57
fluid  U   max/avg/min : 0.0080016217 0.0010054482 0
fluid  K average:  0.026547468
fluid  nu average: 1.5235027e-05

Solving for solid region cilcen
DICPCG:  Solving for h, Initial residual = 0.99619394, Final residual = 1.1068623e-16, No Iterations 1
Tcilcen  max/avg/min : 301.55983 301.55955 301.54768
ExecutionTime = 3.41 s  ClockTime = 4 s

Time = 46


Solving for fluid region fluid
DILUPBiCG:  Solving for Ux, Initial residual = 0.021412196, Final residual = 1.1503024e-07, No Iterations 2
DILUPBiCG:  Solving for Uy, Initial residual = 0.0003215362, Final residual = 5.7993791e-10, No Iterations 2
DILUPBiCG:  Solving for Uz, Initial residual = 0.11942931, Final residual = 2.2538529e-07, No Iterations 2
DILUPBiCG:  Solving for h, Initial residual = 0.012454411, Final residual = 2.9051564e-06, No Iterations 2
GAMG:  Solving for p_rgh, Initial residual = 0.0018344471, Final residual = 7.7566493e-07, No Iterations 5
time step continuity errors : sum local = 1.2336057e-06, global = 3.704913e-07, cumulative = 1.1344997e-05
ExecutionTime = 3.46 s  ClockTime = 4 s
fluid  Inflow      : 1.0554204e-06 [kg/s]
fluid  Outflow     : 1.0557294e-06 [kg/s]
fluid  EnergyInflow  : 0.31183683 [W]
fluid  EnergyOutflow : 0.31199257 [W]
fluid  rho max/avg/min : 1.2016455 1.1958139 1.1715046
fluid  T   max/avg/min : 301.20601 295.12103 293.69991
fluid  P   max/avg/min : 101324.91 101316.16 101307.41
fluid  Prg max/avg/min : 101325 101324.96 101324.56
fluid  U   max/avg/min : 0.0083260746 0.0010969011 0
fluid  K average:  0.026550245
fluid  nu average: 1.5238713e-05

Solving for solid region cilcen
DICPCG:  Solving for h, Initial residual = 0.99591361, Final residual = 1.0575986e-16, No Iterations 1
Tcilcen  max/avg/min : 301.68642 301.68611 301.67358
ExecutionTime = 3.46 s  ClockTime = 4 s

Time = 47


Solving for fluid region fluid
DILUPBiCG:  Solving for Ux, Initial residual = 0.021174992, Final residual = 1.340821e-07, No Iterations 2
DILUPBiCG:  Solving for Uy, Initial residual = 0.00034180721, Final residual = 8.2951898e-10, No Iterations 2
DILUPBiCG:  Solving for Uz, Initial residual = 0.12221842, Final residual = 2.6359112e-07, No Iterations 2
DILUPBiCG:  Solving for h, Initial residual = 0.01220933, Final residual = 3.3012132e-06, No Iterations 2
GAMG:  Solving for p_rgh, Initial residual = 0.0019088241, Final residual = 1.6409204e-06, No Iterations 4
time step continuity errors : sum local = 2.6544517e-06, global = 6.5627229e-07, cumulative = 1.2001269e-05
ExecutionTime = 3.52 s  ClockTime = 4 s
fluid  Inflow      : 1.1819404e-06 [kg/s]
fluid  Outflow     : 1.1824877e-06 [kg/s]
fluid  EnergyInflow  : 0.3492187 [W]
fluid  EnergyOutflow : 0.34945056 [W]
fluid  rho max/avg/min : 1.2016455 1.1956528 1.1710152
fluid  T   max/avg/min : 301.33197 295.16134 293.6999
fluid  P   max/avg/min : 101324.91 101316.16 101307.41
fluid  Prg max/avg/min : 101325 101324.96 101324.55
fluid  U   max/avg/min : 0.0086605624 0.0011966485 0
fluid  K average:  0.026553037
fluid  nu average: 1.524242e-05

Solving for solid region cilcen
DICPCG:  Solving for h, Initial residual = 0.99561763, Final residual = 1.8472202e-16, No Iterations 1
Tcilcen  max/avg/min : 301.81223 301.8119 301.79867
ExecutionTime = 3.52 s  ClockTime = 4 s

Time = 48


Solving for fluid region fluid
DILUPBiCG:  Solving for Ux, Initial residual = 0.021153537, Final residual = 1.5016399e-07, No Iterations 2
DILUPBiCG:  Solving for Uy, Initial residual = 0.00035463572, Final residual = 1.0857129e-09, No Iterations 2
DILUPBiCG:  Solving for Uz, Initial residual = 0.12429924, Final residual = 3.0440256e-07, No Iterations 2
DILUPBiCG:  Solving for h, Initial residual = 0.011972853, Final residual = 3.718546e-06, No Iterations 2
GAMG:  Solving for p_rgh, Initial residual = 0.0019773596, Final residual = 1.0182046e-06, No Iterations 5
time step continuity errors : sum local = 1.6797386e-06, global = 3.5927758e-07, cumulative = 1.2360546e-05
ExecutionTime = 3.56 s  ClockTime = 4 s
fluid  Inflow      : 1.326579e-06 [kg/s]
fluid  Outflow     : 1.3268786e-06 [kg/s]
fluid  EnergyInflow  : 0.39195394 [W]
fluid  EnergyOutflow : 0.39211867 [W]
fluid  rho max/avg/min : 1.2016455 1.195491 1.1705291
fluid  T   max/avg/min : 301.45716 295.20187 293.6999
fluid  P   max/avg/min : 101324.91 101316.16 101307.41
fluid  Prg max/avg/min : 101325 101324.95 101324.54
fluid  U   max/avg/min : 0.0089973096 0.0013061497 0
fluid  K average:  0.026555844
fluid  nu average: 1.5246148e-05

Solving for solid region cilcen
DICPCG:  Solving for h, Initial residual = 0.99530534, Final residual = 2.026192e-16, No Iterations 1
Tcilcen  max/avg/min : 301.93727 301.93692 301.92297
ExecutionTime = 3.57 s  ClockTime = 4 s

Time = 49


Solving for fluid region fluid
DILUPBiCG:  Solving for Ux, Initial residual = 0.021196721, Final residual = 1.7615778e-07, No Iterations 2
DILUPBiCG:  Solving for Uy, Initial residual = 0.00037462866, Final residual = 1.2576534e-09, No Iterations 2
DILUPBiCG:  Solving for Uz, Initial residual = 0.12676868, Final residual = 3.5927217e-07, No Iterations 2
DILUPBiCG:  Solving for h, Initial residual = 0.011743241, Final residual = 4.1440535e-06, No Iterations 2
GAMG:  Solving for p_rgh, Initial residual = 0.0020764804, Final residual = 1.7722183e-06, No Iterations 4
time step continuity errors : sum local = 2.9582779e-06, global = 1.0360333e-06, cumulative = 1.339658e-05
ExecutionTime = 3.62 s  ClockTime = 4 s
fluid  Inflow      : 1.4911742e-06 [kg/s]
fluid  Outflow     : 1.4920382e-06 [kg/s]
fluid  EnergyInflow  : 0.4405856 [W]
fluid  EnergyOutflow : 0.44092354 [W]
fluid  rho max/avg/min : 1.2016455 1.1953284 1.1700464
fluid  T   max/avg/min : 301.5816 295.24262 293.69988
fluid  P   max/avg/min : 101324.91 101316.16 101307.41
fluid  Prg max/avg/min : 101325 101324.95 101324.54
fluid  U   max/avg/min : 0.0093483413 0.0014261024 0
fluid  K average:  0.026558665
fluid  nu average: 1.5249896e-05

Solving for solid region cilcen
DICPCG:  Solving for h, Initial residual = 0.99497607, Final residual = 1.8672534e-16, No Iterations 1
Tcilcen  max/avg/min : 302.06157 302.0612 302.0465
ExecutionTime = 3.62 s  ClockTime = 4 s

Time = 50


Solving for fluid region fluid
DILUPBiCG:  Solving for Ux, Initial residual = 0.021020409, Final residual = 1.985537e-07, No Iterations 2
DILUPBiCG:  Solving for Uy, Initial residual = 0.0004922182, Final residual = 1.8094384e-09, No Iterations 2
DILUPBiCG:  Solving for Uz, Initial residual = 0.12709728, Final residual = 4.1223757e-07, No Iterations 2
DILUPBiCG:  Solving for h, Initial residual = 0.011520949, Final residual = 4.5850475e-06, No Iterations 2
GAMG:  Solving for p_rgh, Initial residual = 0.0021494604, Final residual = 1.1611718e-06, No Iterations 5
time step continuity errors : sum local = 1.9621416e-06, global = 2.2306441e-07, cumulative = 1.3619644e-05
ExecutionTime = 3.67 s  ClockTime = 4 s
fluid  Inflow      : 1.6804184e-06 [kg/s]
fluid  Outflow     : 1.6806045e-06 [kg/s]
fluid  EnergyInflow  : 0.49650013 [W]
fluid  EnergyOutflow : 0.4966446 [W]
fluid  rho max/avg/min : 1.2016456 1.195165 1.1695667
fluid  T   max/avg/min : 301.70533 295.28357 293.69987
fluid  P   max/avg/min : 101324.91 101316.16 101307.41
fluid  Prg max/avg/min : 101325 101324.95 101324.53
fluid  U   max/avg/min : 0.009704488 0.0015583687 0
fluid  K average:  0.026561501
fluid  nu average: 1.5253663e-05

Solving for solid region cilcen
DICPCG:  Solving for h, Initial residual = 0.99462913, Final residual = 1.0427533e-16, No Iterations 1
Tcilcen  max/avg/min : 302.18514 302.18475 302.16927
ExecutionTime = 3.67 s  ClockTime = 4 s

Time = 51


Solving for fluid region fluid
DILUPBiCG:  Solving for Ux, Initial residual = 0.021559871, Final residual = 2.4185227e-07, No Iterations 2
DILUPBiCG:  Solving for Uy, Initial residual = 0.00057118876, Final residual = 2.2441071e-09, No Iterations 2
DILUPBiCG:  Solving for Uz, Initial residual = 0.12752753, Final residual = 4.8770188e-07, No Iterations 2
DILUPBiCG:  Solving for h, Initial residual = 0.011304662, Final residual = 5.0270368e-06, No Iterations 2
GAMG:  Solving for p_rgh, Initial residual = 0.0022415763, Final residual = 1.9001393e-06, No Iterations 4
time step continuity errors : sum local = 3.2360317e-06, global = 1.3996372e-06, cumulative = 1.5019281e-05
ExecutionTime = 3.73 s  ClockTime = 4 s
fluid  Inflow      : 1.8947544e-06 [kg/s]
fluid  Outflow     : 1.8959217e-06 [kg/s]
fluid  EnergyInflow  : 0.55982829 [W]
fluid  EnergyOutflow : 0.56027002 [W]
fluid  rho max/avg/min : 1.2016456 1.1950008 1.1690901
fluid  T   max/avg/min : 301.82835 295.32473 293.69985
fluid  P   max/avg/min : 101324.91 101316.16 101307.4
fluid  Prg max/avg/min : 101325 101324.95 101324.52
fluid  U   max/avg/min : 0.010062833 0.0017035047 0
fluid  K average:  0.02656435
fluid  nu average: 1.5257451e-05

Solving for solid region cilcen
DICPCG:  Solving for h, Initial residual = 0.99426381, Final residual = 8.1936891e-17, No Iterations 1
Tcilcen  max/avg/min : 302.30802 302.3076 302.29131
ExecutionTime = 3.73 s  ClockTime = 4 s

Time = 52


Solving for fluid region fluid
DILUPBiCG:  Solving for Ux, Initial residual = 0.021919242, Final residual = 2.8229976e-07, No Iterations 2
DILUPBiCG:  Solving for Uy, Initial residual = 0.00059218812, Final residual = 2.0468506e-09, No Iterations 2
DILUPBiCG:  Solving for Uz, Initial residual = 0.12512944, Final residual = 5.5789945e-07, No Iterations 2
DILUPBiCG:  Solving for h, Initial residual = 0.01109323, Final residual = 5.4816465e-06, No Iterations 2
GAMG:  Solving for p_rgh, Initial residual = 0.0023743463, Final residual = 2.3221471e-06, No Iterations 4
time step continuity errors : sum local = 3.9796707e-06, global = 2.0295569e-06, cumulative = 1.7048838e-05
ExecutionTime = 3.78 s  ClockTime = 4 s
fluid  Inflow      : 2.1384996e-06 [kg/s]
fluid  Outflow     : 2.1401923e-06 [kg/s]
fluid  EnergyInflow  : 0.63184581 [W]
fluid  EnergyOutflow : 0.6324506 [W]
fluid  rho max/avg/min : 1.2016456 1.194836 1.1686166
fluid  T   max/avg/min : 301.95068 295.36609 293.69982
fluid  P   max/avg/min : 101324.91 101316.16 101307.4
fluid  Prg max/avg/min : 101325 101324.95 101324.52
fluid  U   max/avg/min : 0.010431832 0.0018632048 0
fluid  K average:  0.026567213
fluid  nu average: 1.5261256e-05

Solving for solid region cilcen
DICPCG:  Solving for h, Initial residual = 0.99387936, Final residual = 1.1489396e-16, No Iterations 1
Tcilcen  max/avg/min : 302.43021 302.42976 302.41263
ExecutionTime = 3.78 s  ClockTime = 4 s

Time = 53


Solving for fluid region fluid
DILUPBiCG:  Solving for Ux, Initial residual = 0.022738946, Final residual = 3.295115e-07, No Iterations 2
DILUPBiCG:  Solving for Uy, Initial residual = 0.00064301542, Final residual = 3.3561681e-09, No Iterations 2
DILUPBiCG:  Solving for Uz, Initial residual = 0.12127443, Final residual = 6.4432464e-07, No Iterations 2
DILUPBiCG:  Solving for h, Initial residual = 0.010886863, Final residual = 5.9411836e-06, No Iterations 2
GAMG:  Solving for p_rgh, Initial residual = 0.0024979142, Final residual = 2.1501399e-06, No Iterations 4
time step continuity errors : sum local = 3.7054964e-06, global = 1.9209026e-06, cumulative = 1.8969741e-05
ExecutionTime = 3.83 s  ClockTime = 4 s
fluid  Inflow      : 2.4143036e-06 [kg/s]
fluid  Outflow     : 2.4159056e-06 [kg/s]
fluid  EnergyInflow  : 0.71333545 [W]
fluid  EnergyOutflow : 0.71392192 [W]
fluid  rho max/avg/min : 1.2016456 1.1946704 1.1681461
fluid  T   max/avg/min : 302.07234 295.40764 293.69979
fluid  P   max/avg/min : 101324.91 101316.16 101307.4
fluid  Prg max/avg/min : 101325 101324.95 101324.51
fluid  U   max/avg/min : 0.010808251 0.0020385164 0
fluid  K average:  0.026570089
fluid  nu average: 1.526508e-05

Solving for solid region cilcen
DICPCG:  Solving for h, Initial residual = 0.99347501, Final residual = 2.1742198e-16, No Iterations 1
Tcilcen  max/avg/min : 302.55173 302.55126 302.53325
ExecutionTime = 3.83 s  ClockTime = 4 s

Time = 54


Solving for fluid region fluid
DILUPBiCG:  Solving for Ux, Initial residual = 0.023052615, Final residual = 3.8537885e-07, No Iterations 2
DILUPBiCG:  Solving for Uy, Initial residual = 0.00062319883, Final residual = 3.8018159e-09, No Iterations 2
[...]
fluid  T   max/avg/min : 338.85305 306.26499 293.6867
fluid  P   max/avg/min : 101324.91 101316.16 101307.4
fluid  Prg max/avg/min : 101325 101324.62 101322.65
fluid  U   max/avg/min : 0.69990205 0.2134708 0
fluid  K average:  0.027307004
fluid  nu average: 1.6291216e-05

Solving for solid region cilcen
DICPCG:  Solving for h, Initial residual = 3.6560578e-05, Final residual = 4.95504e-21, No Iterations 1
Tcilcen  max/avg/min : 339.28362 333.96857 318.99333
ExecutionTime = 124.33 s  ClockTime = 125 s

Time = 1507


Solving for fluid region fluid
DILUPBiCG:  Solving for Ux, Initial residual = 0.00013207066, Final residual = 1.1069378e-08, No Iterations 2
DILUPBiCG:  Solving for Uy, Initial residual = 0.018730352, Final residual = 3.315391e-06, No Iterations 2
DILUPBiCG:  Solving for Uz, Initial residual = 1.2408329e-05, Final residual = 1.5287781e-09, No Iterations 2
DILUPBiCG:  Solving for h, Initial residual = 3.3974983e-06, Final residual = 3.6254725e-10, No Iterations 4
GAMG:  Solving for p_rgh, Initial residual = 3.5768655e-05, Final residual = 2.7617475e-08, No Iterations 4
time step continuity errors : sum local = 1.2968151e-07, global = -1.686227e-08, cumulative = 0.00017346281
ExecutionTime = 124.38 s  ClockTime = 125 s
fluid  Inflow      : 3.9395981e-05 [kg/s]
fluid  Outflow     : 3.9395967e-05 [kg/s]
fluid  EnergyInflow  : 11.640023 [W]
fluid  EnergyOutflow : 11.75002 [W]
fluid  rho max/avg/min : 1.2016458 1.1546823 1.0413447
fluid  T   max/avg/min : 338.85246 306.26493 293.6867
fluid  P   max/avg/min : 101324.91 101316.16 101307.4
fluid  Prg max/avg/min : 101325 101324.62 101322.65
fluid  U   max/avg/min : 0.69990342 0.21346805 0
fluid  K average:  0.027307
fluid  nu average: 1.629121e-05

Solving for solid region cilcen
DICPCG:  Solving for h, Initial residual = 3.6424147e-05, Final residual = 2.8831159e-21, No Iterations 1
Tcilcen  max/avg/min : 339.28304 333.96835 318.99353
ExecutionTime = 124.38 s  ClockTime = 125 s

Time = 1508


Solving for fluid region fluid
DILUPBiCG:  Solving for Ux, Initial residual = 0.00011783254, Final residual = 1.2207411e-08, No Iterations 2
DILUPBiCG:  Solving for Uy, Initial residual = 0.01775783, Final residual = 1.7625608e-06, No Iterations 2
DILUPBiCG:  Solving for Uz, Initial residual = 1.6990307e-05, Final residual = 1.079549e-09, No Iterations 2
DILUPBiCG:  Solving for h, Initial residual = 3.3845908e-06, Final residual = 3.7313494e-10, No Iterations 4
GAMG:  Solving for p_rgh, Initial residual = 3.9220669e-05, Final residual = 2.1125675e-08, No Iterations 4
time step continuity errors : sum local = 9.8233905e-08, global = 2.5101931e-08, cumulative = 0.00017348791
ExecutionTime = 124.44 s  ClockTime = 125 s
fluid  Inflow      : 3.9393097e-05 [kg/s]
fluid  Outflow     : 3.9393118e-05 [kg/s]
fluid  EnergyInflow  : 11.639171 [W]
fluid  EnergyOutflow : 11.749177 [W]
fluid  rho max/avg/min : 1.2016458 1.1546825 1.0413465
fluid  T   max/avg/min : 338.85188 306.26487 293.6867
fluid  P   max/avg/min : 101324.91 101316.16 101307.4
fluid  Prg max/avg/min : 101325 101324.62 101322.65
fluid  U   max/avg/min : 0.69990476 0.2134659 0
fluid  K average:  0.027306996
fluid  nu average: 1.6291204e-05

Solving for solid region cilcen
DICPCG:  Solving for h, Initial residual = 3.628753e-05, Final residual = 6.6691607e-21, No Iterations 1
Tcilcen  max/avg/min : 339.28246 333.96812 318.99373
ExecutionTime = 124.44 s  ClockTime = 125 s

Time = 1509


Solving for fluid region fluid
DILUPBiCG:  Solving for Ux, Initial residual = 0.00013161775, Final residual = 1.2255265e-08, No Iterations 2
DILUPBiCG:  Solving for Uy, Initial residual = 0.017458691, Final residual = 1.4267565e-06, No Iterations 2
DILUPBiCG:  Solving for Uz, Initial residual = 1.0449812e-05, Final residual = 2.9601667e-09, No Iterations 2
DILUPBiCG:  Solving for h, Initial residual = 3.3709582e-06, Final residual = 3.7527462e-10, No Iterations 4
GAMG:  Solving for p_rgh, Initial residual = 3.7344239e-05, Final residual = 1.1643527e-08, No Iterations 4
time step continuity errors : sum local = 5.9660518e-08, global = -1.1789832e-08, cumulative = 0.00017347612
ExecutionTime = 124.49 s  ClockTime = 125 s
fluid  Inflow      : 3.93891e-05 [kg/s]
fluid  Outflow     : 3.938909e-05 [kg/s]
fluid  EnergyInflow  : 11.63799 [W]
fluid  EnergyOutflow : 11.747986 [W]
fluid  rho max/avg/min : 1.2016458 1.1546827 1.0413483
fluid  T   max/avg/min : 338.8513 306.26481 293.6867
fluid  P   max/avg/min : 101324.91 101316.16 101307.4
fluid  Prg max/avg/min : 101325 101324.62 101322.65
fluid  U   max/avg/min : 0.69990608 0.21346335 0
fluid  K average:  0.027306992
fluid  nu average: 1.6291198e-05

Solving for solid region cilcen
DICPCG:  Solving for h, Initial residual = 3.6151832e-05, Final residual = 3.4857961e-21, No Iterations 1
Tcilcen  max/avg/min : 339.28188 333.9679 318.99393
ExecutionTime = 124.49 s  ClockTime = 125 s

Time = 1510


Solving for fluid region fluid
DILUPBiCG:  Solving for Ux, Initial residual = 7.0744127e-05, Final residual = 7.5546966e-09, No Iterations 2
DILUPBiCG:  Solving for Uy, Initial residual = 0.01833306, Final residual = 1.6008294e-06, No Iterations 2
DILUPBiCG:  Solving for Uz, Initial residual = 1.6904699e-05, Final residual = 1.07936e-09, No Iterations 2
DILUPBiCG:  Solving for h, Initial residual = 3.358094e-06, Final residual = 3.3568342e-10, No Iterations 4
GAMG:  Solving for p_rgh, Initial residual = 1.5940103e-05, Final residual = 1.5584021e-08, No Iterations 5
time step continuity errors : sum local = 7.6380567e-08, global = 3.0024633e-08, cumulative = 0.00017350614
ExecutionTime = 124.54 s  ClockTime = 125 s
fluid  Inflow      : 3.9386148e-05 [kg/s]
fluid  Outflow     : 3.9386173e-05 [kg/s]
fluid  EnergyInflow  : 11.637118 [W]
fluid  EnergyOutflow : 11.747123 [W]
fluid  rho max/avg/min : 1.2016458 1.1546829 1.0413501
fluid  T   max/avg/min : 338.85072 306.26475 293.6867
fluid  P   max/avg/min : 101324.91 101316.16 101307.4
fluid  Prg max/avg/min : 101325 101324.62 101322.65
fluid  U   max/avg/min : 0.69990737 0.21346117 0
fluid  K average:  0.027306988
fluid  nu average: 1.6291192e-05

Solving for solid region cilcen
DICPCG:  Solving for h, Initial residual = 3.6016449e-05, Final residual = 3.7224105e-21, No Iterations 1
Tcilcen  max/avg/min : 339.2813 333.96768 318.99413
ExecutionTime = 124.55 s  ClockTime = 125 s

Time = 1511


Solving for fluid region fluid
DILUPBiCG:  Solving for Ux, Initial residual = 4.8444163e-05, Final residual = 6.1677412e-09, No Iterations 2
DILUPBiCG:  Solving for Uy, Initial residual = 0.018416378, Final residual = 6.3353023e-06, No Iterations 2
DILUPBiCG:  Solving for Uz, Initial residual = 1.0433061e-05, Final residual = 1.1529508e-09, No Iterations 2
DILUPBiCG:  Solving for h, Initial residual = 3.3445871e-06, Final residual = 4.024208e-10, No Iterations 4
GAMG:  Solving for p_rgh, Initial residual = 1.0222169e-05, Final residual = 9.1176245e-09, No Iterations 6
time step continuity errors : sum local = 4.7532857e-08, global = -2.3419665e-09, cumulative = 0.0001735038
ExecutionTime = 124.59 s  ClockTime = 125 s
fluid  Inflow      : 3.9383678e-05 [kg/s]
fluid  Outflow     : 3.9383676e-05 [kg/s]
fluid  EnergyInflow  : 11.636388 [W]
fluid  EnergyOutflow : 11.746384 [W]
fluid  rho max/avg/min : 1.2016458 1.154683 1.0413519
fluid  T   max/avg/min : 338.85014 306.26469 293.6867
fluid  P   max/avg/min : 101324.91 101316.16 101307.4
fluid  Prg max/avg/min : 101325 101324.62 101322.65
fluid  U   max/avg/min : 0.69990863 0.21345916 0
fluid  K average:  0.027306984
fluid  nu average: 1.6291186e-05

Solving for solid region cilcen
DICPCG:  Solving for h, Initial residual = 3.5879537e-05, Final residual = 3.5448338e-21, No Iterations 1
Tcilcen  max/avg/min : 339.28072 333.96746 318.99433
ExecutionTime = 124.59 s  ClockTime = 125 s

Time = 1512


Solving for fluid region fluid
DILUPBiCG:  Solving for Ux, Initial residual = 3.0864429e-05, Final residual = 4.2667896e-11, No Iterations 3
DILUPBiCG:  Solving for Uy, Initial residual = 0.01838157, Final residual = 3.7602816e-06, No Iterations 2
DILUPBiCG:  Solving for Uz, Initial residual = 1.2568216e-05, Final residual = 9.2367217e-10, No Iterations 2
DILUPBiCG:  Solving for h, Initial residual = 3.331383e-06, Final residual = 3.8179475e-10, No Iterations 4
GAMG:  Solving for p_rgh, Initial residual = 7.1882826e-06, Final residual = 8.8954259e-09, No Iterations 1000
time step continuity errors : sum local = 4.7219319e-08, global = -9.4938426e-12, cumulative = 0.00017350379
ExecutionTime = 125.68 s  ClockTime = 126 s
fluid  Inflow      : 3.9380818e-05 [kg/s]
fluid  Outflow     : 3.9380818e-05 [kg/s]
fluid  EnergyInflow  : 11.635543 [W]
fluid  EnergyOutflow : 11.745538 [W]
fluid  rho max/avg/min : 1.2016458 1.1546832 1.0413537
fluid  T   max/avg/min : 338.84956 306.26463 293.6867
fluid  P   max/avg/min : 101324.91 101316.16 101307.4
fluid  Prg max/avg/min : 101325 101324.62 101322.65
fluid  U   max/avg/min : 0.69990986 0.21345701 0
fluid  K average:  0.02730698
fluid  nu average: 1.6291181e-05

Solving for solid region cilcen
DICPCG:  Solving for h, Initial residual = 3.5744514e-05, Final residual = 4.1237105e-21, No Iterations 1
Tcilcen  max/avg/min : 339.28015 333.96724 318.99453
ExecutionTime = 125.68 s  ClockTime = 126 s

Time = 1513


Solving for fluid region fluid
DILUPBiCG:  Solving for Ux, Initial residual = 2.5210346e-05, Final residual = 2.6379538e-09, No Iterations 2
DILUPBiCG:  Solving for Uy, Initial residual = 0.0179178, Final residual = 1.3538068e-06, No Iterations 2
DILUPBiCG:  Solving for Uz, Initial residual = 1.1839845e-05, Final residual = 8.1641155e-10, No Iterations 2
DILUPBiCG:  Solving for h, Initial residual = 3.318158e-06, Final residual = 3.8011618e-10, No Iterations 4
GAMG:  Solving for p_rgh, Initial residual = 5.7672082e-06, Final residual = 8.7519761e-09, No Iterations 1000
time step continuity errors : sum local = 4.7173801e-08, global = 1.4150075e-09, cumulative = 0.00017350521
ExecutionTime = 126.76 s  ClockTime = 127 s
fluid  Inflow      : 3.9377995e-05 [kg/s]
fluid  Outflow     : 3.9377997e-05 [kg/s]
fluid  EnergyInflow  : 11.634709 [W]
fluid  EnergyOutflow : 11.744704 [W]
fluid  rho max/avg/min : 1.2016458 1.1546834 1.0413554
fluid  T   max/avg/min : 338.84899 306.26457 293.6867
fluid  P   max/avg/min : 101324.91 101316.16 101307.4
fluid  Prg max/avg/min : 101325 101324.62 101322.65
fluid  U   max/avg/min : 0.69991107 0.21345488 0
fluid  K average:  0.027306976
fluid  nu average: 1.6291175e-05

Solving for solid region cilcen
DICPCG:  Solving for h, Initial residual = 3.5609493e-05, Final residual = 7.3277747e-21, No Iterations 1
Tcilcen  max/avg/min : 339.27957 333.96703 318.99473
ExecutionTime = 126.76 s  ClockTime = 127 s

Time = 1514


Solving for fluid region fluid
DILUPBiCG:  Solving for Ux, Initial residual = 0.00011383548, Final residual = 5.0022094e-09, No Iterations 2
DILUPBiCG:  Solving for Uy, Initial residual = 0.017395896, Final residual = 9.5707702e-07, No Iterations 2
DILUPBiCG:  Solving for Uz, Initial residual = 1.208354e-05, Final residual = 8.0447274e-10, No Iterations 2
DILUPBiCG:  Solving for h, Initial residual = 3.3049704e-06, Final residual = 3.927121e-10, No Iterations 4
GAMG:  Solving for p_rgh, Initial residual = 4.1891408e-05, Final residual = 2.4295855e-08, No Iterations 3
time step continuity errors : sum local = 1.1474585e-07, global = 7.9133215e-08, cumulative = 0.00017358434
ExecutionTime = 126.81 s  ClockTime = 127 s
fluid  Inflow      : 3.9375115e-05 [kg/s]
fluid  Outflow     : 3.9375181e-05 [kg/s]
fluid  EnergyInflow  : 11.633858 [W]
fluid  EnergyOutflow : 11.743871 [W]
fluid  rho max/avg/min : 1.2016458 1.1546836 1.0413572
fluid  T   max/avg/min : 338.84841 306.26451 293.6867
fluid  P   max/avg/min : 101324.91 101316.16 101307.4
fluid  Prg max/avg/min : 101325 101324.62 101322.65
fluid  U   max/avg/min : 0.69991225 0.21345273 0
fluid  K average:  0.027306972
fluid  nu average: 1.6291169e-05

Solving for solid region cilcen
DICPCG:  Solving for h, Initial residual = 3.5474468e-05, Final residual = 6.4258102e-21, No Iterations 1
Tcilcen  max/avg/min : 339.279 333.96681 318.99493
ExecutionTime = 126.81 s  ClockTime = 127 s

Time = 1515


Solving for fluid region fluid
DILUPBiCG:  Solving for Ux, Initial residual = 0.0001316742, Final residual = 1.1032475e-08, No Iterations 2
DILUPBiCG:  Solving for Uy, Initial residual = 0.018192844, Final residual = 1.3569302e-06, No Iterations 2
DILUPBiCG:  Solving for Uz, Initial residual = 1.2124932e-05, Final residual = 1.4648247e-09, No Iterations 2
DILUPBiCG:  Solving for h, Initial residual = 3.291919e-06, Final residual = 3.4180141e-10, No Iterations 4
GAMG:  Solving for p_rgh, Initial residual = 3.5652936e-05, Final residual = 2.8248547e-08, No Iterations 4
time step continuity errors : sum local = 1.3016532e-07, global = -1.569191e-08, cumulative = 0.00017356865
ExecutionTime = 126.86 s  ClockTime = 127 s
fluid  Inflow      : 3.9370571e-05 [kg/s]
fluid  Outflow     : 3.9370558e-05 [kg/s]
fluid  EnergyInflow  : 11.632516 [W]
fluid  EnergyOutflow : 11.742504 [W]
fluid  rho max/avg/min : 1.2016458 1.1546838 1.041359
fluid  T   max/avg/min : 338.84784 306.26445 293.6867
fluid  P   max/avg/min : 101324.91 101316.16 101307.4
fluid  Prg max/avg/min : 101325 101324.62 101322.65
fluid  U   max/avg/min : 0.69991341 0.21344998 0
fluid  K average:  0.027306969
fluid  nu average: 1.6291163e-05

Solving for solid region cilcen
DICPCG:  Solving for h, Initial residual = 3.5341238e-05, Final residual = 3.1543962e-21, No Iterations 1
Tcilcen  max/avg/min : 339.27843 333.9666 318.99513
ExecutionTime = 126.86 s  ClockTime = 127 s

Time = 1516


Solving for fluid region fluid
DILUPBiCG:  Solving for Ux, Initial residual = 0.00011748696, Final residual = 1.2176034e-08, No Iterations 2
DILUPBiCG:  Solving for Uy, Initial residual = 0.017629029, Final residual = 7.2803109e-06, No Iterations 2
DILUPBiCG:  Solving for Uz, Initial residual = 1.6718092e-05, Final residual = 1.0666824e-09, No Iterations 2
DILUPBiCG:  Solving for h, Initial residual = 3.2793477e-06, Final residual = 3.4052508e-10, No Iterations 4
GAMG:  Solving for p_rgh, Initial residual = 3.9096153e-05, Final residual = 2.0412596e-08, No Iterations 4
time step continuity errors : sum local = 9.6539597e-08, global = 2.3512751e-08, cumulative = 0.00017359216
ExecutionTime = 126.91 s  ClockTime = 127 s
fluid  Inflow      : 3.9367737e-05 [kg/s]
fluid  Outflow     : 3.9367757e-05 [kg/s]
fluid  EnergyInflow  : 11.631678 [W]
fluid  EnergyOutflow : 11.741675 [W]
fluid  rho max/avg/min : 1.2016458 1.154684 1.0413607
fluid  T   max/avg/min : 338.84727 306.26439 293.6867
fluid  P   max/avg/min : 101324.91 101316.16 101307.4
fluid  Prg max/avg/min : 101325 101324.62 101322.65
fluid  U   max/avg/min : 0.69991455 0.21344783 0
fluid  K average:  0.027306965
fluid  nu average: 1.6291158e-05

Solving for solid region cilcen
DICPCG:  Solving for h, Initial residual = 3.5206885e-05, Final residual = 3.9618737e-21, No Iterations 1
Tcilcen  max/avg/min : 339.27786 333.96638 318.99533
ExecutionTime = 126.91 s  ClockTime = 127 s

Time = 1517


Solving for fluid region fluid
DILUPBiCG:  Solving for Ux, Initial residual = 0.00013119296, Final residual = 1.2208836e-08, No Iterations 2
DILUPBiCG:  Solving for Uy, Initial residual = 0.017745592, Final residual = 3.924496e-06, No Iterations 2
DILUPBiCG:  Solving for Uz, Initial residual = 1.0182203e-05, Final residual = 2.6459035e-09, No Iterations 2
DILUPBiCG:  Solving for h, Initial residual = 3.2660419e-06, Final residual = 3.5870486e-10, No Iterations 4
GAMG:  Solving for p_rgh, Initial residual = 3.7226922e-05, Final residual = 1.2016851e-08, No Iterations 4
time step continuity errors : sum local = 6.1128638e-08, global = -1.120023e-08, cumulative = 0.00017358096
ExecutionTime = 126.98 s  ClockTime = 127 s
fluid  Inflow      : 3.9363786e-05 [kg/s]
fluid  Outflow     : 3.9363777e-05 [kg/s]
fluid  EnergyInflow  : 11.630511 [W]
fluid  EnergyOutflow : 11.740498 [W]
fluid  rho max/avg/min : 1.2016458 1.1546842 1.0413625
fluid  T   max/avg/min : 338.8467 306.26434 293.6867
fluid  P   max/avg/min : 101324.91 101316.16 101307.4
fluid  Prg max/avg/min : 101325 101324.62 101322.65
fluid  U   max/avg/min : 0.69991566 0.21344529 0
fluid  K average:  0.027306961
fluid  nu average: 1.6291152e-05

Solving for solid region cilcen
DICPCG:  Solving for h, Initial residual = 3.5072926e-05, Final residual = 6.6766761e-21, No Iterations 1
Tcilcen  max/avg/min : 339.27729 333.96617 318.99552
ExecutionTime = 126.98 s  ClockTime = 127 s

Time = 1518


Solving for fluid region fluid
DILUPBiCG:  Solving for Ux, Initial residual = 7.0475165e-05, Final residual = 7.5313817e-09, No Iterations 2
DILUPBiCG:  Solving for Uy, Initial residual = 0.019004289, Final residual = 1.8968808e-06, No Iterations 2
DILUPBiCG:  Solving for Uz, Initial residual = 1.6631184e-05, Final residual = 1.0645743e-09, No Iterations 2
DILUPBiCG:  Solving for h, Initial residual = 3.2534829e-06, Final residual = 3.1613589e-10, No Iterations 4
GAMG:  Solving for p_rgh, Initial residual = 1.5847328e-05, Final residual = 1.5332541e-08, No Iterations 5
time step continuity errors : sum local = 7.2703116e-08, global = 2.7939653e-08, cumulative = 0.0001736089
ExecutionTime = 127.02 s  ClockTime = 127 s
fluid  Inflow      : 3.9360884e-05 [kg/s]
fluid  Outflow     : 3.9360907e-05 [kg/s]
fluid  EnergyInflow  : 11.629653 [W]
fluid  EnergyOutflow : 11.739649 [W]
fluid  rho max/avg/min : 1.2016458 1.1546843 1.0413642
fluid  T   max/avg/min : 338.84614 306.26428 293.6867
fluid  P   max/avg/min : 101324.91 101316.16 101307.4
fluid  Prg max/avg/min : 101325 101324.62 101322.65
fluid  U   max/avg/min : 0.69991675 0.21344312 0
fluid  K average:  0.027306957
fluid  nu average: 1.6291146e-05

Solving for solid region cilcen
DICPCG:  Solving for h, Initial residual = 3.4939659e-05, Final residual = 3.3740806e-21, No Iterations 1
Tcilcen  max/avg/min : 339.27673 333.96596 318.99572
ExecutionTime = 127.02 s  ClockTime = 127 s

Time = 1519


Solving for fluid region fluid
DILUPBiCG:  Solving for Ux, Initial residual = 4.8095186e-05, Final residual = 6.1691089e-09, No Iterations 2
DILUPBiCG:  Solving for Uy, Initial residual = 0.018744905, Final residual = 1.3381705e-06, No Iterations 2
DILUPBiCG:  Solving for Uz, Initial residual = 1.0167609e-05, Final residual = 1.0795534e-09, No Iterations 2
DILUPBiCG:  Solving for h, Initial residual = 3.2402886e-06, Final residual = 3.8022964e-10, No Iterations 4
GAMG:  Solving for p_rgh, Initial residual = 1.0133944e-05, Final residual = 8.9908343e-09, No Iterations 6
time step continuity errors : sum local = 4.6086334e-08, global = -2.4123077e-09, cumulative = 0.00017360649
ExecutionTime = 127.07 s  ClockTime = 127 s
fluid  Inflow      : 3.9358458e-05 [kg/s]
fluid  Outflow     : 3.9358456e-05 [kg/s]
fluid  EnergyInflow  : 11.628936 [W]
fluid  EnergyOutflow : 11.738924 [W]
fluid  rho max/avg/min : 1.2016458 1.1546845 1.0413659
fluid  T   max/avg/min : 338.84557 306.26422 293.6867
fluid  P   max/avg/min : 101324.91 101316.16 101307.4
fluid  Prg max/avg/min : 101325 101324.62 101322.65
fluid  U   max/avg/min : 0.6999178 0.2134411 0
fluid  K average:  0.027306954
fluid  nu average: 1.6291141e-05

Solving for solid region cilcen
DICPCG:  Solving for h, Initial residual = 3.4804861e-05, Final residual = 6.407041e-21, No Iterations 1
Tcilcen  max/avg/min : 339.27616 333.96575 318.99592
ExecutionTime = 127.08 s  ClockTime = 127 s

Time = 1520


Solving for fluid region fluid
DILUPBiCG:  Solving for Ux, Initial residual = 3.0616714e-05, Final residual = 2.841148e-08, No Iterations 2
DILUPBiCG:  Solving for Uy, Initial residual = 0.018623194, Final residual = 1.1115364e-06, No Iterations 2
DILUPBiCG:  Solving for Uz, Initial residual = 1.2303211e-05, Final residual = 8.8824844e-10, No Iterations 2
DILUPBiCG:  Solving for h, Initial residual = 3.2273919e-06, Final residual = 3.4614743e-10, No Iterations 4
