/*---------------------------------------------------------------------------*\
| =========                 |                                                 |
| \\      /  F ield         | OpenFOAM: The Open Source CFD Toolbox           |
|  \\    /   O peration     | Version:  4.0                                   |
|   \\  /    A nd           | Web:      www.OpenFOAM.org                      |
|    \\/     M anipulation  |                                                 |
\*---------------------------------------------------------------------------*/
Build  : 4.0-665f1db4c1f1
Exec   : pupoBuoyantSimpleFoam
Date   : Sep 16 2016
Time   : 16:56:51
Host   : "SC500"
PID    : 7741
Case   : /home/pedro/Documents/ThesisProject/OpenFoam/validation1rod/NoRad
nProcs : 1
sigFpe : Enabling floating point exception trapping (FOAM_SIGFPE).
fileModificationChecking : Monitoring run-time modified files using timeStampMaster
allowSystemOperations : Allowing user-supplied system call operations

// * * * * * * * * * * * * * * * * * * * * * * * * * * * * * * * * * * * * * //
Create time

Create mesh for time = 0


SIMPLE: convergence criteria
    field p_rgh	 tolerance 1e-06
    field Uz	 tolerance 1e-06
    field h	 tolerance 1e-06

Reading thermophysical properties

Selecting thermodynamics package 
{
    type            heRhoThermo;
    mixture         pureMixture;
    transport       sutherland;
    thermo          hConst;
    equationOfState perfectGas;
    specie          specie;
    energy          sensibleEnthalpy;
}


Reading g

Reading hRef
Calculating field g.h

Selecting turbulence model type laminar
No MRF models present

Selecting radiationModel none
 
rho max/avg/min : 1.2016452 1.2015414 1.2014377
T   max/avg/min : 293.7 293.7 293.7
P   max/avg/min : 101324.91 101316.16 101307.41
Prg max/avg/min : 101325 101325 101325
U   max/avg/min : 0 0 0
 
No finite volume options present


Starting Iteration loop

Iteration Number = 1

DILUPBiCG:  Solving for Ux, Initial residual = 0.009764874, Final residual = 1.4535255e-06, No Iterations 2
DILUPBiCG:  Solving for Uy, Initial residual = 4.8698736e-07, Final residual = 4.8698736e-07, No Iterations 0
DILUPBiCG:  Solving for Uz, Initial residual = 1, Final residual = 0.00034288199, No Iterations 2
DILUPBiCG:  Solving for h, Initial residual = 1, Final residual = 0.00045974485, No Iterations 1
GAMG:  Solving for p_rgh, Initial residual = 0.83939739, Final residual = 0.00054947743, No Iterations 2
time step continuity errors : sum local = 0.00018979375, global = -4.0048122e-05, cumulative = -4.0048122e-05
ExecutionTime = 0.09 s  ClockTime = 0 s
Inflow      : -2.2188672e-07 [kg/s]
Outflow     : -2.5528683e-07 [kg/s]
EnergyInflow  : -0.065559139 [W]
EnergyOutflow : -0.075427609 [W]
EnergyBalance : -0.0098684699 [W]
rho max/avg/min : 1.2016452 1.1953618 1.0955956
T   max/avg/min : 322.07345 295.29785 293.7
P   max/avg/min : 101324.91 101316.16 101307.41
Prg max/avg/min : 101325 101324.95 101323.45
U   max/avg/min : 0.00010202721 -7.9462633e-05 -0.00086232568
Prg max-min : 1.5502513
 
Iteration Number = 2

DILUPBiCG:  Solving for Ux, Initial residual = 0.40064935, Final residual = 0.00011790951, No Iterations 2
DILUPBiCG:  Solving for Uy, Initial residual = 8.6038733e-05, Final residual = 2.0481285e-08, No Iterations 2
DILUPBiCG:  Solving for Uz, Initial residual = 0.39062163, Final residual = 4.4165684e-05, No Iterations 2
DILUPBiCG:  Solving for h, Initial residual = 0.24744203, Final residual = 6.2825009e-05, No Iterations 1
GAMG:  Solving for p_rgh, Initial residual = 0.026508386, Final residual = 1.3453089e-05, No Iterations 4
time step continuity errors : sum local = 7.2272638e-05, global = 9.6025114e-06, cumulative = -3.044561e-05
ExecutionTime = 0.13 s  ClockTime = 0 s
Inflow      : -3.5944186e-07 [kg/s]
Outflow     : -3.5143337e-07 [kg/s]
EnergyInflow  : -0.10620148 [W]
EnergyOutflow : -0.10383528 [W]
EnergyBalance : 0.0023662057 [W]
rho max/avg/min : 1.2016452 1.1899281 1.049144
T   max/avg/min : 336.33407 296.78083 293.70001
P   max/avg/min : 101324.91 101316.16 101307.41
Prg max/avg/min : 101325 101324.91 101322.77
U   max/avg/min : 0.00031211871 -9.464559e-05 -0.00087013987
Prg max-min : 2.231119
 
Iteration Number = 3

DILUPBiCG:  Solving for Ux, Initial residual = 0.59540815, Final residual = 0.00021539743, No Iterations 2
DILUPBiCG:  Solving for Uy, Initial residual = 0.00011307375, Final residual = 3.6860317e-08, No Iterations 2
DILUPBiCG:  Solving for Uz, Initial residual = 0.23226366, Final residual = 1.4416843e-05, No Iterations 2
DILUPBiCG:  Solving for h, Initial residual = 0.15309309, Final residual = 5.1318095e-05, No Iterations 1
GAMG:  Solving for p_rgh, Initial residual = 0.01353661, Final residual = 4.0046919e-06, No Iterations 3
time step continuity errors : sum local = 3.7960011e-05, global = 1.9735361e-06, cumulative = -2.8472074e-05
ExecutionTime = 0.16 s  ClockTime = 0 s
Inflow      : -2.6832476e-07 [kg/s]
Outflow     : -2.6667883e-07 [kg/s]
EnergyInflow  : -0.079279824 [W]
EnergyOutflow : -0.078792561 [W]
EnergyBalance : 0.00048726274 [W]
rho max/avg/min : 1.2016452 1.1849157 1.020804
T   max/avg/min : 345.67151 298.18422 293.70002
P   max/avg/min : 101324.91 101316.16 101307.41
Prg max/avg/min : 101325 101324.88 101322.35
U   max/avg/min : 0.00061099277 -1.8212758e-06 -0.00066709873
Prg max-min : 2.6459672
 
Iteration Number = 4

DILUPBiCG:  Solving for Ux, Initial residual = 0.51718222, Final residual = 0.00015880989, No Iterations 2
DILUPBiCG:  Solving for Uy, Initial residual = 8.1503532e-05, Final residual = 2.5314998e-08, No Iterations 2
DILUPBiCG:  Solving for Uz, Initial residual = 0.22715568, Final residual = 7.4921755e-06, No Iterations 2
DILUPBiCG:  Solving for h, Initial residual = 0.11037148, Final residual = 4.7025557e-05, No Iterations 1
GAMG:  Solving for p_rgh, Initial residual = 0.0080633511, Final residual = 3.6362449e-06, No Iterations 3
time step continuity errors : sum local = 4.801532e-05, global = 2.9059248e-05, cumulative = 5.8717387e-07
ExecutionTime = 0.2 s  ClockTime = 0 s
Inflow      : -2.3188819e-07 [kg/s]
Outflow     : -2.076528e-07 [kg/s]
EnergyInflow  : -0.068514196 [W]
EnergyOutflow : -0.061350755 [W]
EnergyBalance : 0.0071634401 [W]
rho max/avg/min : 1.2016451 1.1801018 0.99911182
T   max/avg/min : 353.17654 299.55874 293.70003
P   max/avg/min : 101324.91 101316.16 101307.41
Prg max/avg/min : 101325 101324.84 101322.04
U   max/avg/min : 0.00098478093 0.00011940584 -0.00054830048
Prg max-min : 2.9638912
 
Iteration Number = 5

DILUPBiCG:  Solving for Ux, Initial residual = 0.52736775, Final residual = 0.00014267967, No Iterations 2
DILUPBiCG:  Solving for Uy, Initial residual = 7.0937221e-05, Final residual = 8.9320934e-07, No Iterations 1
DILUPBiCG:  Solving for Uz, Initial residual = 0.22098723, Final residual = 5.03055e-06, No Iterations 2
DILUPBiCG:  Solving for h, Initial residual = 0.087019859, Final residual = 4.8380243e-05, No Iterations 1
GAMG:  Solving for p_rgh, Initial residual = 0.0058506148, Final residual = 4.3409559e-06, No Iterations 3
time step continuity errors : sum local = 7.290468e-05, global = 1.3723472e-05, cumulative = 1.4310646e-05
ExecutionTime = 0.24 s  ClockTime = 0 s
Inflow      : -1.7614236e-07 [kg/s]
Outflow     : -1.64697e-07 [kg/s]
EnergyInflow  : -0.05204341 [W]
EnergyOutflow : -0.048655406 [W]
EnergyBalance : 0.0033880042 [W]
rho max/avg/min : 1.201645 1.1754215 0.98123184
T   max/avg/min : 359.61148 300.91713 293.70003
P   max/avg/min : 101324.91 101316.16 101307.41
Prg max/avg/min : 101325 101324.81 101321.77
U   max/avg/min : 0.0014546792 0.00028572999 -0.00046334816
Prg max-min : 3.2255245
 
Iteration Number = 6

DILUPBiCG:  Solving for Ux, Initial residual = 0.43256131, Final residual = 0.00010383676, No Iterations 2
DILUPBiCG:  Solving for Uy, Initial residual = 7.2714244e-05, Final residual = 6.943776e-07, No Iterations 1
DILUPBiCG:  Solving for Uz, Initial residual = 0.20463265, Final residual = 3.9251932e-06, No Iterations 2
DILUPBiCG:  Solving for h, Initial residual = 0.072075218, Final residual = 5.3292602e-05, No Iterations 1
GAMG:  Solving for p_rgh, Initial residual = 0.0048210804, Final residual = 4.746312e-06, No Iterations 3
time step continuity errors : sum local = 9.6586767e-05, global = 4.6296192e-05, cumulative = 6.0606838e-05
ExecutionTime = 0.28 s  ClockTime = 0 s
Inflow      : -1.7195233e-07 [kg/s]
Outflow     : -1.3334134e-07 [kg/s]
EnergyInflow  : -0.050805415 [W]
EnergyOutflow : -0.039384902 [W]
EnergyBalance : 0.011420513 [W]
rho max/avg/min : 1.2016451 1.1708499 0.96599729
T   max/avg/min : 365.28285 302.26267 293.70003
P   max/avg/min : 101324.91 101316.16 101307.41
Prg max/avg/min : 101325 101324.77 101321.55
U   max/avg/min : 0.0020167098 0.00050911479 -0.00043855162
Prg max-min : 3.4486763
 
Iteration Number = 7

DILUPBiCG:  Solving for Ux, Initial residual = 0.37544023, Final residual = 7.4577714e-05, No Iterations 2
DILUPBiCG:  Solving for Uy, Initial residual = 8.7112429e-05, Final residual = 7.0637163e-07, No Iterations 1
DILUPBiCG:  Solving for Uz, Initial residual = 0.19749742, Final residual = 3.7132231e-06, No Iterations 2
DILUPBiCG:  Solving for h, Initial residual = 0.061661622, Final residual = 6.1255187e-05, No Iterations 1
GAMG:  Solving for p_rgh, Initial residual = 0.0042192028, Final residual = 1.764591e-06, No Iterations 4
time step continuity errors : sum local = 4.2069954e-05, global = 1.1670227e-05, cumulative = 7.2277065e-05
ExecutionTime = 0.32 s  ClockTime = 1 s
Inflow      : -1.1854517e-07 [kg/s]
Outflow     : -1.0881221e-07 [kg/s]
EnergyInflow  : -0.035025616 [W]
EnergyOutflow : -0.032127593 [W]
EnergyBalance : 0.0028980232 [W]
rho max/avg/min : 1.201645 1.1663729 0.95272664
T   max/avg/min : 370.37092 303.59665 293.70003
P   max/avg/min : 101324.91 101316.16 101307.41
Prg max/avg/min : 101325 101324.74 101321.36
U   max/avg/min : 0.0026842217 0.00081846061 -0.00037319984
Prg max-min : 3.6429151
 
Iteration Number = 8

DILUPBiCG:  Solving for Ux, Initial residual = 0.34540332, Final residual = 5.4864759e-05, No Iterations 2
DILUPBiCG:  Solving for Uy, Initial residual = 0.00011707285, Final residual = 6.2973884e-07, No Iterations 1
DILUPBiCG:  Solving for Uz, Initial residual = 0.1848497, Final residual = 3.5494402e-06, No Iterations 2
DILUPBiCG:  Solving for h, Initial residual = 0.053962417, Final residual = 1.2293334e-06, No Iterations 2
GAMG:  Solving for p_rgh, Initial residual = 0.0042194211, Final residual = 1.1683024e-06, No Iterations 4
time step continuity errors : sum local = 3.1981236e-05, global = 2.3680347e-05, cumulative = 9.5957412e-05
ExecutionTime = 0.35 s  ClockTime = 1 s
Inflow      : -1.1101259e-07 [kg/s]
Outflow     : -9.1263195e-08 [kg/s]
EnergyInflow  : -0.032800024 [W]
EnergyOutflow : -0.026927184 [W]
EnergyBalance : 0.00587284 [W]
rho max/avg/min : 1.2016451 1.1619733 0.94098015
T   max/avg/min : 374.99435 304.92159 293.70003
P   max/avg/min : 101324.91 101316.16 101307.41
Prg max/avg/min : 101325 101324.71 101321.19
U   max/avg/min : 0.0034804831 0.0012123767 -0.00033682811
Prg max-min : 3.8147342
 
Iteration Number = 9

DILUPBiCG:  Solving for Ux, Initial residual = 0.28737128, Final residual = 4.6477958e-05, No Iterations 2
DILUPBiCG:  Solving for Uy, Initial residual = 0.00015428617, Final residual = 5.8530475e-07, No Iterations 1
DILUPBiCG:  Solving for Uz, Initial residual = 0.16870745, Final residual = 3.3819202e-06, No Iterations 2
DILUPBiCG:  Solving for h, Initial residual = 0.048066216, Final residual = 1.9954478e-06, No Iterations 2
GAMG:  Solving for p_rgh, Initial residual = 0.0039439317, Final residual = 1.2342076e-06, No Iterations 4
time step continuity errors : sum local = 3.7951221e-05, global = -1.4159453e-06, cumulative = 9.4541467e-05
ExecutionTime = 0.39 s  ClockTime = 1 s
Inflow      : -7.8163675e-08 [kg/s]
Outflow     : -7.9344572e-08 [kg/s]
EnergyInflow  : -0.023094411 [W]
EnergyOutflow : -0.023382473 [W]
EnergyBalance : -0.00028806206 [W]
rho max/avg/min : 1.201645 1.1576504 0.93044502
T   max/avg/min : 379.24029 306.23641 293.70005
P   max/avg/min : 101324.91 101316.16 101307.41
Prg max/avg/min : 101325 101324.68 101321.03
U   max/avg/min : 0.0044316683 0.0017219838 -0.00035779611
Prg max-min : 3.9689713
 
Iteration Number = 10

DILUPBiCG:  Solving for Ux, Initial residual = 0.23472272, Final residual = 3.7562619e-05, No Iterations 2
DILUPBiCG:  Solving for Uy, Initial residual = 0.00021733321, Final residual = 6.8199328e-07, No Iterations 1
DILUPBiCG:  Solving for Uz, Initial residual = 0.16250283, Final residual = 4.271149e-06, No Iterations 2
DILUPBiCG:  Solving for h, Initial residual = 0.04332573, Final residual = 2.70711e-06, No Iterations 2
GAMG:  Solving for p_rgh, Initial residual = 0.0039776751, Final residual = 2.2104211e-06, No Iterations 4
time step continuity errors : sum local = 7.548876e-05, global = 4.5333435e-05, cumulative = 0.0001398749
ExecutionTime = 0.43 s  ClockTime = 1 s
Inflow      : -1.1048359e-07 [kg/s]
Outflow     : -7.267553e-08 [kg/s]
EnergyInflow  : -0.032643724 [W]
EnergyOutflow : -0.021377662 [W]
EnergyBalance : 0.011266062 [W]
rho max/avg/min : 1.2016449 1.153399 0.92090095
T   max/avg/min : 383.17068 307.54121 293.70009
P   max/avg/min : 101324.91 101316.16 101307.41
Prg max/avg/min : 101325 101324.65 101320.89
U   max/avg/min : 0.0055786284 0.0023578582 -0.0004560541
Prg max-min : 4.1084061
 
Iteration Number = 11

DILUPBiCG:  Solving for Ux, Initial residual = 0.20286184, Final residual = 3.5153208e-05, No Iterations 2
DILUPBiCG:  Solving for Uy, Initial residual = 0.00032836688, Final residual = 1.7681071e-08, No Iterations 2
DILUPBiCG:  Solving for Uz, Initial residual = 0.15622509, Final residual = 5.3852311e-06, No Iterations 2
DILUPBiCG:  Solving for h, Initial residual = 0.03948958, Final residual = 4.7768477e-06, No Iterations 2
GAMG:  Solving for p_rgh, Initial residual = 0.0038526107, Final residual = 9.6599106e-07, No Iterations 4
time step continuity errors : sum local = 3.6159493e-05, global = -3.2242385e-06, cumulative = 0.00013665066
ExecutionTime = 0.47 s  ClockTime = 1 s
Inflow      : -6.8918026e-08 [kg/s]
Outflow     : -7.1607039e-08 [kg/s]
EnergyInflow  : -0.020362671 [W]
EnergyOutflow : -0.021011732 [W]
EnergyBalance : -0.0006490602 [W]
rho max/avg/min : 1.2016444 1.1492151 0.91218523
T   max/avg/min : 386.83178 308.83607 293.70016
P   max/avg/min : 101324.91 101316.16 101307.41
Prg max/avg/min : 101325 101324.61 101320.76
U   max/avg/min : 0.0069615634 0.0031619007 -0.0005868694
Prg max-min : 4.2360526
 
Iteration Number = 12

DILUPBiCG:  Solving for Ux, Initial residual = 0.17911837, Final residual = 3.4302511e-05, No Iterations 2
DILUPBiCG:  Solving for Uy, Initial residual = 0.00044766723, Final residual = 2.0635907e-08, No Iterations 2
DILUPBiCG:  Solving for Uz, Initial residual = 0.15464118, Final residual = 6.0828696e-06, No Iterations 2
DILUPBiCG:  Solving for h, Initial residual = 0.03625424, Final residual = 6.0612704e-06, No Iterations 2
GAMG:  Solving for p_rgh, Initial residual = 0.004031289, Final residual = 3.442493e-06, No Iterations 4
time step continuity errors : sum local = 0.00014025112, global = 4.1618219e-05, cumulative = 0.00017826888
ExecutionTime = 0.52 s  ClockTime = 1 s
Inflow      : -1.1250407e-07 [kg/s]
Outflow     : -7.7794505e-08 [kg/s]
EnergyInflow  : -0.033240701 [W]
EnergyOutflow : -0.022767124 [W]
EnergyBalance : 0.010473577 [W]
rho max/avg/min : 1.2016439 1.1450965 0.90417242
T   max/avg/min : 390.2599 310.12072 293.7003
P   max/avg/min : 101324.91 101316.16 101307.41
Prg max/avg/min : 101325 101324.58 101320.65
U   max/avg/min : 0.0086236622 0.004132353 -0.00092125024
Prg max-min : 4.352779
 
Iteration Number = 13

DILUPBiCG:  Solving for Ux, Initial residual = 0.17899938, Final residual = 3.9260819e-05, No Iterations 2
DILUPBiCG:  Solving for Uy, Initial residual = 0.00064991376, Final residual = 4.5879801e-08, No Iterations 2
DILUPBiCG:  Solving for Uz, Initial residual = 0.15018226, Final residual = 9.4083503e-06, No Iterations 2
DILUPBiCG:  Solving for h, Initial residual = 0.033510622, Final residual = 9.662237e-06, No Iterations 2
GAMG:  Solving for p_rgh, Initial residual = 0.0040477233, Final residual = 1.3160204e-06, No Iterations 4
time step continuity errors : sum local = 5.7616584e-05, global = 8.6946541e-06, cumulative = 0.00018696354
ExecutionTime = 0.55 s  ClockTime = 1 s
Inflow      : -1.0267234e-07 [kg/s]
Outflow     : -9.5421007e-08 [kg/s]
EnergyInflow  : -0.030335796 [W]
EnergyOutflow : -0.027870209 [W]
EnergyBalance : 0.0024655875 [W]
rho max/avg/min : 1.2016425 1.1410406 0.89676451
T   max/avg/min : 393.48373 311.3951 293.70056
P   max/avg/min : 101324.91 101316.16 101307.41
Prg max/avg/min : 101325 101324.55 101320.54
U   max/avg/min : 0.010620608 0.0053234196 -0.0012952714
Prg max-min : 4.46128
 
Iteration Number = 14

DILUPBiCG:  Solving for Ux, Initial residual = 0.16856471, Final residual = 4.2676807e-05, No Iterations 2
DILUPBiCG:  Solving for Uy, Initial residual = 0.00084904239, Final residual = 5.8197331e-08, No Iterations 2
DILUPBiCG:  Solving for Uz, Initial residual = 0.14472554, Final residual = 5.0919793e-06, No Iterations 2
DILUPBiCG:  Solving for h, Initial residual = 0.031134381, Final residual = 1.3407775e-05, No Iterations 2
GAMG:  Solving for p_rgh, Initial residual = 0.0043242889, Final residual = 1.1932842e-06, No Iterations 5
time step continuity errors : sum local = 5.6027648e-05, global = 2.532494e-05, cumulative = 0.00021228848
ExecutionTime = 0.59 s  ClockTime = 1 s
Inflow      : -1.3940353e-07 [kg/s]
Outflow     : -1.1828254e-07 [kg/s]
EnergyInflow  : -0.041188473 [W]
EnergyOutflow : -0.034473279 [W]
EnergyBalance : 0.0067151936 [W]
rho max/avg/min : 1.2016407 1.1370473 0.88988214
T   max/avg/min : 396.52694 312.65857 293.70102
P   max/avg/min : 101324.91 101316.16 101307.41
Prg max/avg/min : 101325 101324.53 101320.44
U   max/avg/min : 0.013005134 0.0067373595 -0.0018661895
Prg max-min : 4.561263
 
Iteration Number = 15

DILUPBiCG:  Solving for Ux, Initial residual = 0.16257302, Final residual = 4.9331765e-05, No Iterations 2
DILUPBiCG:  Solving for Uy, Initial residual = 0.0012145427, Final residual = 1.2974742e-07, No Iterations 2
DILUPBiCG:  Solving for Uz, Initial residual = 0.14077951, Final residual = 1.2472e-05, No Iterations 2
DILUPBiCG:  Solving for h, Initial residual = 0.029032801, Final residual = 1.9533224e-05, No Iterations 2
GAMG:  Solving for p_rgh, Initial residual = 0.0047631245, Final residual = 2.8304007e-06, No Iterations 4
time step continuity errors : sum local = 0.00014125502, global = 3.9480087e-05, cumulative = 0.00025176856
ExecutionTime = 0.63 s  ClockTime = 1 s
Inflow      : -1.9167896e-07 [kg/s]
Outflow     : -1.5875259e-07 [kg/s]
EnergyInflow  : -0.056633887 [W]
EnergyOutflow : -0.046211125 [W]
EnergyBalance : 0.010422763 [W]
rho max/avg/min : 1.2016367 1.1331165 0.88346087
T   max/avg/min : 399.40903 313.91057 293.70192
P   max/avg/min : 101324.91 101316.16 101307.41
Prg max/avg/min : 101325 101324.5 101320.35
U   max/avg/min : 0.015846675 0.0083870842 -0.0027059523
Prg max-min : 4.6548229
 
Iteration Number = 16

DILUPBiCG:  Solving for Ux, Initial residual = 0.13932664, Final residual = 5.2688807e-05, No Iterations 2
DILUPBiCG:  Solving for Uy, Initial residual = 0.0014084276, Final residual = 2.3045698e-07, No Iterations 2
DILUPBiCG:  Solving for Uz, Initial residual = 0.13272374, Final residual = 9.6592841e-06, No Iterations 2
DILUPBiCG:  Solving for h, Initial residual = 0.027160188, Final residual = 2.1899396e-06, No Iterations 4
GAMG:  Solving for p_rgh, Initial residual = 0.0050523712, Final residual = 1.465261e-06, No Iterations 5
time step continuity errors : sum local = 7.7154321e-05, global = 8.2382325e-06, cumulative = 0.0002600068
ExecutionTime = 0.67 s  ClockTime = 1 s
Inflow      : -2.0658585e-07 [kg/s]
Outflow     : -1.9971517e-07 [kg/s]
EnergyInflow  : -0.061038311 [W]
EnergyOutflow : -0.057995033 [W]
EnergyBalance : 0.0030432774 [W]
rho max/avg/min : 1.2016283 1.1292422 0.87744672
T   max/avg/min : 402.14664 315.15211 293.70414
P   max/avg/min : 101324.91 101316.16 101307.41
Prg max/avg/min : 101325 101324.47 101320.26
U   max/avg/min : 0.019196108 0.010310683 -0.0037268853
Prg max-min : 4.7423703
 
Iteration Number = 17

DILUPBiCG:  Solving for Ux, Initial residual = 0.13311043, Final residual = 6.2541777e-05, No Iterations 2
DILUPBiCG:  Solving for Uy, Initial residual = 0.0018695146, Final residual = 4.1418719e-07, No Iterations 2
DILUPBiCG:  Solving for Uz, Initial residual = 0.1259426, Final residual = 1.223846e-05, No Iterations 2
DILUPBiCG:  Solving for h, Initial residual = 0.025455744, Final residual = 3.793346e-06, No Iterations 4
GAMG:  Solving for p_rgh, Initial residual = 0.0061052996, Final residual = 2.1039655e-06, No Iterations 5
time step continuity errors : sum local = 0.00011554938, global = 3.8351081e-05, cumulative = 0.00029835788
ExecutionTime = 0.71 s  ClockTime = 1 s
Inflow      : -2.7996108e-07 [kg/s]
Outflow     : -2.479763e-07 [kg/s]
EnergyInflow  : -0.082717917 [W]
EnergyOutflow : -0.071791337 [W]
EnergyBalance : 0.01092658 [W]
rho max/avg/min : 1.2016152 1.1254307 0.87179556
T   max/avg/min : 404.75344 316.38113 293.70735
P   max/avg/min : 101324.91 101316.16 101307.41
Prg max/avg/min : 101325 101324.44 101320.18
U   max/avg/min : 0.023153853 0.012503153 -0.00508808
Prg max-min : 4.8245646
 
Iteration Number = 18

DILUPBiCG:  Solving for Ux, Initial residual = 0.1323376, Final residual = 6.9303111e-05, No Iterations 2
DILUPBiCG:  Solving for Uy, Initial residual = 0.002427017, Final residual = 7.6782956e-07, No Iterations 2
DILUPBiCG:  Solving for Uz, Initial residual = 0.11725824, Final residual = 1.2783764e-05, No Iterations 2
DILUPBiCG:  Solving for h, Initial residual = 0.023895645, Final residual = 5.6647168e-06, No Iterations 4
GAMG:  Solving for p_rgh, Initial residual = 0.0072104701, Final residual = 7.0499671e-06, No Iterations 4
time step continuity errors : sum local = 0.00039540342, global = 0.00012274361, cumulative = 0.00042110148
ExecutionTime = 0.75 s  ClockTime = 1 s
Inflow      : -3.7027626e-07 [kg/s]
Outflow     : -2.6790817e-07 [kg/s]
EnergyInflow  : -0.10940264 [W]
EnergyOutflow : -0.07700282 [W]
EnergyBalance : 0.032399819 [W]
rho max/avg/min : 1.2015972 1.1216839 0.86646945
T   max/avg/min : 407.24143 317.59672 293.71174
P   max/avg/min : 101324.91 101316.16 101307.41
Prg max/avg/min : 101325 101324.41 101320.1
U   max/avg/min : 0.027753572 0.014991366 -0.0066585549
Prg max-min : 4.9017425
 
Iteration Number = 19

DILUPBiCG:  Solving for Ux, Initial residual = 0.12924745, Final residual = 8.1515173e-05, No Iterations 2
DILUPBiCG:  Solving for Uy, Initial residual = 0.0031566579, Final residual = 1.4385748e-06, No Iterations 2
DILUPBiCG:  Solving for Uz, Initial residual = 0.1084378, Final residual = 1.3530606e-05, No Iterations 2
DILUPBiCG:  Solving for h, Initial residual = 0.022459837, Final residual = 9.2313844e-06, No Iterations 5
GAMG:  Solving for p_rgh, Initial residual = 0.0080764833, Final residual = 6.7390308e-06, No Iterations 4
time step continuity errors : sum local = 0.00038411273, global = 9.0181189e-05, cumulative = 0.00051128267
ExecutionTime = 0.79 s  ClockTime = 1 s
Inflow      : -3.6900305e-07 [kg/s]
Outflow     : -2.9379199e-07 [kg/s]
EnergyInflow  : -0.10902645 [W]
EnergyOutflow : -0.083694732 [W]
EnergyBalance : 0.025331722 [W]
rho max/avg/min : 1.2015904 1.1180011 0.86143504
T   max/avg/min : 409.62144 318.79864 293.71341
P   max/avg/min : 101324.91 101316.16 101307.41
Prg max/avg/min : 101325 101324.39 101320.03
U   max/avg/min : 0.033058718 0.01777212 -0.0085668035
Prg max-min : 4.9740387
 
Iteration Number = 20

DILUPBiCG:  Solving for Ux, Initial residual = 0.11902186, Final residual = 7.9854459e-05, No Iterations 2
DILUPBiCG:  Solving for Uy, Initial residual = 0.0032556273, Final residual = 1.6566391e-06, No Iterations 2
DILUPBiCG:  Solving for Uz, Initial residual = 0.099587757, Final residual = 1.4514275e-05, No Iterations 2
DILUPBiCG:  Solving for h, Initial residual = 0.021120671, Final residual = 7.9333203e-06, No Iterations 4
GAMG:  Solving for p_rgh, Initial residual = 0.0083265151, Final residual = 7.8827231e-06, No Iterations 4
time step continuity errors : sum local = 0.00046132009, global = 0.00015559464, cumulative = 0.00066687731
ExecutionTime = 0.83 s  ClockTime = 1 s
Inflow      : -3.7509655e-07 [kg/s]
Outflow     : -2.4533071e-07 [kg/s]
EnergyInflow  : -0.11082685 [W]
EnergyOutflow : -0.068061256 [W]
EnergyBalance : 0.042765595 [W]
rho max/avg/min : 1.2015861 1.1143924 0.85666628
T   max/avg/min : 411.90167 319.98395 293.71445
P   max/avg/min : 101324.91 101316.16 101307.42
Prg max/avg/min : 101325 101324.36 101319.96
U   max/avg/min : 0.039114981 0.020841086 -0.010659572
Prg max-min : 5.0420996
 
Iteration Number = 21

DILUPBiCG:  Solving for Ux, Initial residual = 0.1158449, Final residual = 8.6774329e-05, No Iterations 2
DILUPBiCG:  Solving for Uy, Initial residual = 0.0038536398, Final residual = 7.7367225e-08, No Iterations 3
DILUPBiCG:  Solving for Uz, Initial residual = 0.091087428, Final residual = 1.5365627e-05, No Iterations 2
DILUPBiCG:  Solving for h, Initial residual = 0.019879059, Final residual = 8.4752091e-06, No Iterations 4
GAMG:  Solving for p_rgh, Initial residual = 0.0090542509, Final residual = 4.8466546e-06, No Iterations 4
time step continuity errors : sum local = 0.00029230197, global = 4.9380271e-05, cumulative = 0.00071625759
ExecutionTime = 0.87 s  ClockTime = 1 s
Inflow      : -1.3934935e-07 [kg/s]
Outflow     : -9.8166234e-08 [kg/s]
EnergyInflow  : -0.041172465 [W]
EnergyOutflow : -0.022792327 [W]
EnergyBalance : 0.018380139 [W]
rho max/avg/min : 1.201582 1.1108584 0.85213803
T   max/avg/min : 414.09051 321.1521 293.71545
P   max/avg/min : 101324.91 101316.16 101307.42
Prg max/avg/min : 101325 101324.33 101319.9
U   max/avg/min : 0.045950376 0.02423547 -0.012796041
Prg max-min : 5.1063447
 
Iteration Number = 22

DILUPBiCG:  Solving for Ux, Initial residual = 0.10032103, Final residual = 8.2909664e-05, No Iterations 2
DILUPBiCG:  Solving for Uy, Initial residual = 0.0049764807, Final residual = 1.0792578e-07, No Iterations 3
DILUPBiCG:  Solving for Uz, Initial residual = 0.08337565, Final residual = 1.6648385e-05, No Iterations 2
DILUPBiCG:  Solving for h, Initial residual = 0.0187433, Final residual = 8.6626152e-06, No Iterations 4
GAMG:  Solving for p_rgh, Initial residual = 0.0091865121, Final residual = 5.8040278e-06, No Iterations 4
time step continuity errors : sum local = 0.00036742778, global = 0.00016506561, cumulative = 0.0008813232
ExecutionTime = 0.91 s  ClockTime = 1 s
Inflow      : -4.4923328e-08 [kg/s]
Outflow     : 9.2741293e-08 [kg/s]
EnergyInflow  : -0.013273145 [W]
EnergyOutflow : 0.035938128 [W]
EnergyBalance : 0.049211273 [W]
rho max/avg/min : 1.2015811 1.1074036 0.84782893
T   max/avg/min : 416.19514 322.30159 293.71569
P   max/avg/min : 101324.91 101316.16 101307.42
Prg max/avg/min : 101325 101324.31 101319.84
U   max/avg/min : 0.053532232 0.027848138 -0.014777932
Prg max-min : 5.1674208
 
Iteration Number = 23

DILUPBiCG:  Solving for Ux, Initial residual = 0.097947816, Final residual = 8.5204915e-05, No Iterations 2
DILUPBiCG:  Solving for Uy, Initial residual = 0.0060494343, Final residual = 3.5630995e-07, No Iterations 3
DILUPBiCG:  Solving for Uz, Initial residual = 0.076701855, Final residual = 1.6556869e-05, No Iterations 2
DILUPBiCG:  Solving for h, Initial residual = 0.017668361, Final residual = 8.4923564e-06, No Iterations 4
GAMG:  Solving for p_rgh, Initial residual = 0.0082109458, Final residual = 6.574288e-06, No Iterations 4
time step continuity errors : sum local = 0.00043560812, global = 1.8374632e-05, cumulative = 0.00089969783
ExecutionTime = 0.95 s  ClockTime = 1 s
Inflow      : 4.1537018e-07 [kg/s]
Outflow     : 4.3069461e-07 [kg/s]
EnergyInflow  : 0.12272619 [W]
EnergyOutflow : 0.13874883 [W]
EnergyBalance : 0.016022643 [W]
rho max/avg/min : 1.2015787 1.1040315 0.84372084
T   max/avg/min : 418.22161 323.43116 293.71626
P   max/avg/min : 101324.91 101316.16 101307.42
Prg max/avg/min : 101325 101324.28 101319.78
U   max/avg/min : 0.061909401 0.031774486 -0.016787599
Prg max-min : 5.2249446
 
Iteration Number = 24

DILUPBiCG:  Solving for Ux, Initial residual = 0.084345509, Final residual = 7.9404533e-05, No Iterations 2
DILUPBiCG:  Solving for Uy, Initial residual = 0.0060896935, Final residual = 7.244933e-09, No Iterations 4
DILUPBiCG:  Solving for Uz, Initial residual = 0.070547117, Final residual = 1.7309988e-05, No Iterations 2
DILUPBiCG:  Solving for h, Initial residual = 0.016696859, Final residual = 1.0575178e-05, No Iterations 4
GAMG:  Solving for p_rgh, Initial residual = 0.0081795083, Final residual = 3.993423e-06, No Iterations 4
time step continuity errors : sum local = 0.00028484889, global = 4.6140712e-05, cumulative = 0.00094583854
ExecutionTime = 0.99 s  ClockTime = 1 s
Inflow      : 7.9473161e-07 [kg/s]
Outflow     : 8.3321294e-07 [kg/s]
EnergyInflow  : 0.23481315 [W]
EnergyOutflow : 0.26136672 [W]
EnergyBalance : 0.026553571 [W]
rho max/avg/min : 1.2015792 1.100747 0.8397973
T   max/avg/min : 420.17555 324.53916 293.71613
P   max/avg/min : 101324.91 101316.17 101307.42
Prg max/avg/min : 101325 101324.26 101319.72
U   max/avg/min : 0.07100609 0.03592606 -0.019117586
Prg max-min : 5.280084
 
Iteration Number = 25

DILUPBiCG:  Solving for Ux, Initial residual = 0.082401854, Final residual = 7.8693668e-05, No Iterations 2
DILUPBiCG:  Solving for Uy, Initial residual = 0.0061082969, Final residual = 2.8881217e-07, No Iterations 3
DILUPBiCG:  Solving for Uz, Initial residual = 0.064916544, Final residual = 1.6448006e-05, No Iterations 2
DILUPBiCG:  Solving for h, Initial residual = 0.01577882, Final residual = 1.02573e-05, No Iterations 4
GAMG:  Solving for p_rgh, Initial residual = 0.0067179894, Final residual = 2.8555522e-06, No Iterations 4
time step continuity errors : sum local = 0.00021518465, global = -3.6052962e-05, cumulative = 0.00090978558
ExecutionTime = 1.03 s  ClockTime = 1 s
Inflow      : 1.458421e-06 [kg/s]
Outflow     : 1.4283528e-06 [kg/s]
EnergyInflow  : 0.43090826 [W]
EnergyOutflow : 0.44175468 [W]
EnergyBalance : 0.010846421 [W]
rho max/avg/min : 1.2015802 1.0975531 0.83604445
T   max/avg/min : 422.06166 325.62451 293.7159
P   max/avg/min : 101324.91 101316.16 101307.42
Prg max/avg/min : 101325 101324.23 101319.67
U   max/avg/min : 0.080847339 0.040327302 -0.021348406
Prg max-min : 5.3321557
 
Iteration Number = 26

DILUPBiCG:  Solving for Ux, Initial residual = 0.071092636, Final residual = 3.6322901e-06, No Iterations 3
DILUPBiCG:  Solving for Uy, Initial residual = 0.0074060014, Final residual = 2.6114035e-07, No Iterations 3
DILUPBiCG:  Solving for Uz, Initial residual = 0.06068191, Final residual = 1.5909303e-05, No Iterations 2
DILUPBiCG:  Solving for h, Initial residual = 0.014943409, Final residual = 1.1839642e-05, No Iterations 4
GAMG:  Solving for p_rgh, Initial residual = 0.0062574777, Final residual = 3.5573754e-06, No Iterations 4
time step continuity errors : sum local = 0.00027529272, global = 8.1835572e-05, cumulative = 0.00099162115
ExecutionTime = 1.08 s  ClockTime = 1 s
Inflow      : 2.0710653e-06 [kg/s]
Outflow     : 2.1393161e-06 [kg/s]
EnergyInflow  : 0.61192152 [W]
EnergyOutflow : 0.65723034 [W]
EnergyBalance : 0.045308823 [W]
rho max/avg/min : 1.2015847 1.0944538 0.83244999
T   max/avg/min : 423.88409 326.68572 293.71481
P   max/avg/min : 101324.91 101316.17 101307.43
Prg max/avg/min : 101325 101324.21 101319.62
U   max/avg/min : 0.091292782 0.044926739 -0.023314501
Prg max-min : 5.3812908
 
Iteration Number = 27

DILUPBiCG:  Solving for Ux, Initial residual = 0.069889919, Final residual = 5.5095283e-06, No Iterations 3
DILUPBiCG:  Solving for Uy, Initial residual = 0.0099476988, Final residual = 3.3642164e-07, No Iterations 3
DILUPBiCG:  Solving for Uz, Initial residual = 0.055652134, Final residual = 1.4612524e-05, No Iterations 2
DILUPBiCG:  Solving for h, Initial residual = 0.014165896, Final residual = 1.2758702e-05, No Iterations 4
GAMG:  Solving for p_rgh, Initial residual = 0.0066351406, Final residual = 3.4071024e-06, No Iterations 4
time step continuity errors : sum local = 0.00025952033, global = -3.3909484e-05, cumulative = 0.00095771167
ExecutionTime = 1.11 s  ClockTime = 1 s
Inflow      : 3.0816093e-06 [kg/s]
Outflow     : 3.0533288e-06 [kg/s]
EnergyInflow  : 0.91049907 [W]
EnergyOutflow : 0.93386045 [W]
EnergyBalance : 0.023361371 [W]
rho max/avg/min : 1.2016073 1.0914516 0.82900242
T   max/avg/min : 425.64692 327.72185 293.70928
P   max/avg/min : 101324.91 101316.16 101307.43
Prg max/avg/min : 101325 101324.19 101319.57
U   max/avg/min : 0.1023229 0.04975114 -0.025024481
Prg max-min : 5.431074
 
Iteration Number = 28

DILUPBiCG:  Solving for Ux, Initial residual = 0.061622986, Final residual = 3.7180908e-06, No Iterations 3
DILUPBiCG:  Solving for Uy, Initial residual = 0.010072209, Final residual = 9.1435591e-06, No Iterations 2
DILUPBiCG:  Solving for Uz, Initial residual = 0.053647557, Final residual = 1.4041188e-05, No Iterations 2
DILUPBiCG:  Solving for h, Initial residual = 0.013434705, Final residual = 9.8700514e-07, No Iterations 6
GAMG:  Solving for p_rgh, Initial residual = 0.0066265497, Final residual = 3.238746e-06, No Iterations 4
time step continuity errors : sum local = 0.00022914488, global = 0.00012528268, cumulative = 0.0010829943
ExecutionTime = 1.15 s  ClockTime = 1 s
Inflow      : 4.0547978e-06 [kg/s]
Outflow     : 4.1592835e-06 [kg/s]
EnergyInflow  : 1.1980395 [W]
EnergyOutflow : 1.268296 [W]
EnergyBalance : 0.070256519 [W]
rho max/avg/min : 1.2016305 1.0885475 0.82569229
T   max/avg/min : 427.3533 328.73239 293.70361
P   max/avg/min : 101324.91 101316.17 101307.43
Prg max/avg/min : 101325 101324.17 101319.53
U   max/avg/min : 0.11403981 0.054742784 -0.026407208
Prg max-min : 5.4736696
 
Iteration Number = 29

DILUPBiCG:  Solving for Ux, Initial residual = 0.057321932, Final residual = 3.214482e-06, No Iterations 3
DILUPBiCG:  Solving for Uy, Initial residual = 0.010151524, Final residual = 8.3124243e-07, No Iterations 3
DILUPBiCG:  Solving for Uz, Initial residual = 0.048617744, Final residual = 1.2682728e-05, No Iterations 2
DILUPBiCG:  Solving for h, Initial residual = 0.012759648, Final residual = 1.1638096e-05, No Iterations 4
GAMG:  Solving for p_rgh, Initial residual = 0.0078584784, Final residual = 5.7234407e-06, No Iterations 4
time step continuity errors : sum local = 0.0003826518, global = 3.1013539e-05, cumulative = 0.0011140079
ExecutionTime = 1.19 s  ClockTime = 1 s
Inflow      : 5.4749027e-06 [kg/s]
Outflow     : 5.500768e-06 [kg/s]
EnergyInflow  : 1.6176268 [W]
EnergyOutflow : 1.6734686 [W]
EnergyBalance : 0.055841763 [W]
rho max/avg/min : 1.2016401 1.0857487 0.82251201
T   max/avg/min : 429.0057 329.71493 293.70126
P   max/avg/min : 101324.91 101316.16 101307.43
Prg max/avg/min : 101325 101324.14 101319.48
U   max/avg/min : 0.12624787 0.059937733 -0.027241115
Prg max-min : 5.5227872
 
Iteration Number = 30

DILUPBiCG:  Solving for Ux, Initial residual = 0.054616612, Final residual = 3.4351721e-06, No Iterations 3
DILUPBiCG:  Solving for Uy, Initial residual = 0.0096251126, Final residual = 1.2311217e-06, No Iterations 3
DILUPBiCG:  Solving for Uz, Initial residual = 0.049259774, Final residual = 1.3223628e-05, No Iterations 2
DILUPBiCG:  Solving for h, Initial residual = 0.01213489, Final residual = 1.7761829e-06, No Iterations 6
GAMG:  Solving for p_rgh, Initial residual = 0.010089377, Final residual = 3.4139498e-06, No Iterations 4
time step continuity errors : sum local = 0.00021038744, global = 8.2383089e-05, cumulative = 0.001196391
ExecutionTime = 1.24 s  ClockTime = 1 s
Inflow      : 6.983806e-06 [kg/s]
Outflow     : 7.0525134e-06 [kg/s]
EnergyInflow  : 2.0634507 [W]
EnergyOutflow : 2.1422658 [W]
EnergyBalance : 0.078815173 [W]
rho max/avg/min : 1.2016442 1.0830535 0.81945252
T   max/avg/min : 430.60741 330.66972 293.70025
P   max/avg/min : 101324.91 101316.17 101307.43
Prg max/avg/min : 101325 101324.12 101319.44
U   max/avg/min : 0.13893486 0.065270503 -0.027827446
Prg max-min : 5.561364
 
Iteration Number = 31

DILUPBiCG:  Solving for Ux, Initial residual = 0.048621766, Final residual = 2.8271482e-06, No Iterations 3
DILUPBiCG:  Solving for Uy, Initial residual = 0.0091699777, Final residual = 9.2026123e-07, No Iterations 3
DILUPBiCG:  Solving for Uz, Initial residual = 0.043898971, Final residual = 1.1747966e-05, No Iterations 2
DILUPBiCG:  Solving for h, Initial residual = 0.011539288, Final residual = 8.7193368e-06, No Iterations 4
GAMG:  Solving for p_rgh, Initial residual = 0.010929886, Final residual = 7.1006963e-06, No Iterations 4
time step continuity errors : sum local = 0.0004061037, global = -1.8079019e-05, cumulative = 0.001178312
ExecutionTime = 1.28 s  ClockTime = 1 s
Inflow      : 8.7920017e-06 [kg/s]
Outflow     : 8.7769238e-06 [kg/s]
EnergyInflow  : 2.5977042 [W]
EnergyOutflow : 2.6631765 [W]
EnergyBalance : 0.065472357 [W]
rho max/avg/min : 1.2016454 1.0804661 0.81650832
T   max/avg/min : 432.16015 331.59522 293.69995
P   max/avg/min : 101324.91 101316.16 101307.43
Prg max/avg/min : 101325 101324.1 101319.39
U   max/avg/min : 0.15201488 0.070738334 -0.028080724
Prg max-min : 5.6072866
 
Iteration Number = 32

DILUPBiCG:  Solving for Ux, Initial residual = 0.050722523, Final residual = 2.6956874e-05, No Iterations 3
DILUPBiCG:  Solving for Uy, Initial residual = 0.010650038, Final residual = 6.8281779e-07, No Iterations 3
DILUPBiCG:  Solving for Uz, Initial residual = 0.045760327, Final residual = 1.4103853e-05, No Iterations 2
DILUPBiCG:  Solving for h, Initial residual = 0.010976709, Final residual = 3.5203532e-06, No Iterations 6
GAMG:  Solving for p_rgh, Initial residual = 0.0140787, Final residual = 7.0441204e-06, No Iterations 4
time step continuity errors : sum local = 0.00037559187, global = 0.00016476855, cumulative = 0.0013430805
ExecutionTime = 1.32 s  ClockTime = 2 s
Inflow      : 1.071595e-05 [kg/s]
Outflow     : 1.0853367e-05 [kg/s]
EnergyInflow  : 3.1661581 [W]
EnergyOutflow : 3.2893905 [W]
EnergyBalance : 0.12323241 [W]
rho max/avg/min : 1.2016458 1.0779898 0.81367158
T   max/avg/min : 433.66679 332.49023 293.69978
P   max/avg/min : 101324.91 101316.17 101307.43
Prg max/avg/min : 101325 101324.08 101319.36
U   max/avg/min : 0.16547449 0.076353461 -0.02763192
Prg max-min : 5.6444191
 
Iteration Number = 33

DILUPBiCG:  Solving for Ux, Initial residual = 0.043280822, Final residual = 2.0935401e-06, No Iterations 3
DILUPBiCG:  Solving for Uy, Initial residual = 0.012891845, Final residual = 6.0851953e-07, No Iterations 3
DILUPBiCG:  Solving for Uz, Initial residual = 0.042088436, Final residual = 1.2998767e-05, No Iterations 2
DILUPBiCG:  Solving for h, Initial residual = 0.010443992, Final residual = 2.5215949e-06, No Iterations 6
GAMG:  Solving for p_rgh, Initial residual = 0.01820484, Final residual = 7.3898528e-06, No Iterations 4
time step continuity errors : sum local = 0.00037000001, global = -6.439858e-05, cumulative = 0.0012786819
ExecutionTime = 1.36 s  ClockTime = 2 s
Inflow      : 1.318165e-05 [kg/s]
Outflow     : 1.3127942e-05 [kg/s]
EnergyInflow  : 3.8946793 [W]
EnergyOutflow : 3.975736 [W]
EnergyBalance : 0.081056723 [W]
rho max/avg/min : 1.2016459 1.0756227 0.81093767
T   max/avg/min : 435.12883 333.35497 293.69957
P   max/avg/min : 101324.91 101316.16 101307.43
Prg max/avg/min : 101325 101324.06 101319.31
U   max/avg/min : 0.17924426 0.082098236 -0.026885419
Prg max-min : 5.6874886
 
Iteration Number = 34

DILUPBiCG:  Solving for Ux, Initial residual = 0.050682482, Final residual = 2.9243677e-06, No Iterations 3
DILUPBiCG:  Solving for Uy, Initial residual = 0.0147587, Final residual = 5.2911252e-08, No Iterations 4
DILUPBiCG:  Solving for Uz, Initial residual = 0.043086504, Final residual = 1.6611844e-05, No Iterations 2
DILUPBiCG:  Solving for h, Initial residual = 0.0098983684, Final residual = 1.0032307e-06, No Iterations 7
GAMG:  Solving for p_rgh, Initial residual = 0.018680265, Final residual = 6.2135491e-06, No Iterations 4
time step continuity errors : sum local = 0.00028493354, global = 2.3074705e-05, cumulative = 0.0013017566
ExecutionTime = 1.4 s  ClockTime = 2 s
Inflow      : 1.5499247e-05 [kg/s]
Outflow     : 1.5518491e-05 [kg/s]
EnergyInflow  : 4.5794416 [W]
EnergyOutflow : 4.6973801 [W]
EnergyBalance : 0.11793858 [W]
rho max/avg/min : 1.2016459 1.0733708 0.80830142
T   max/avg/min : 436.54797 334.18744 293.69927
P   max/avg/min : 101324.91 101316.17 101307.43
Prg max/avg/min : 101325 101324.04 101319.28
U   max/avg/min : 0.19328042 0.087872106 -0.025624074
Prg max-min : 5.7210093
 
Iteration Number = 35

DILUPBiCG:  Solving for Ux, Initial residual = 0.03906383, Final residual = 2.3738016e-06, No Iterations 3
DILUPBiCG:  Solving for Uy, Initial residual = 0.015470354, Final residual = 1.2030484e-06, No Iterations 3
DILUPBiCG:  Solving for Uz, Initial residual = 0.038710281, Final residual = 1.4577056e-05, No Iterations 2
DILUPBiCG:  Solving for h, Initial residual = 0.0093850372, Final residual = 9.3411005e-06, No Iterations 5
GAMG:  Solving for p_rgh, Initial residual = 0.018016236, Final residual = 1.1302237e-05, No Iterations 4
time step continuity errors : sum local = 0.00049158522, global = -1.1139439e-05, cumulative = 0.0012906172
ExecutionTime = 1.44 s  ClockTime = 2 s
Inflow      : 1.8326255e-05 [kg/s]
Outflow     : 1.8316965e-05 [kg/s]
EnergyInflow  : 5.4147156 [W]
EnergyOutflow : 5.5406962 [W]
EnergyBalance : 0.1259806 [W]
rho max/avg/min : 1.2016459 1.071229 0.80575817
T   max/avg/min : 437.92589 334.98887 293.69898
P   max/avg/min : 101324.91 101316.16 101307.43
Prg max/avg/min : 101325 101324.02 101319.23
U   max/avg/min : 0.2075374 0.093803 -0.02365008
Prg max-min : 5.7656379
 
Iteration Number = 36

DILUPBiCG:  Solving for Ux, Initial residual = 0.051639221, Final residual = 2.973115e-06, No Iterations 3
DILUPBiCG:  Solving for Uy, Initial residual = 0.016318906, Final residual = 2.3020003e-06, No Iterations 3
DILUPBiCG:  Solving for Uz, Initial residual = 0.041098218, Final residual = 2.0649164e-05, No Iterations 2
DILUPBiCG:  Solving for h, Initial residual = 0.0088783257, Final residual = 2.3639171e-06, No Iterations 7
GAMG:  Solving for p_rgh, Initial residual = 0.025848075, Final residual = 8.7155818e-06, No Iterations 4
time step continuity errors : sum local = 0.00035953157, global = -3.6136627e-06, cumulative = 0.0012870035
ExecutionTime = 1.48 s  ClockTime = 2 s
Inflow      : 2.0863611e-05 [kg/s]
Outflow     : 2.0860597e-05 [kg/s]
EnergyInflow  : 6.1644083 [W]
EnergyOutflow : 6.3094372 [W]
EnergyBalance : 0.14502885 [W]
rho max/avg/min : 1.2016459 1.0692061 0.8033033
T   max/avg/min : 439.26415 335.7563 293.69858
P   max/avg/min : 101324.91 101316.16 101307.43
Prg max/avg/min : 101325 101324.01 101319.21
U   max/avg/min : 0.22202761 0.099696904 -0.022132018
Prg max-min : 5.7939539
 
Iteration Number = 37

DILUPBiCG:  Solving for Ux, Initial residual = 0.033730862, Final residual = 2.1004807e-06, No Iterations 3
DILUPBiCG:  Solving for Uy, Initial residual = 0.016194468, Final residual = 7.5326515e-07, No Iterations 3
DILUPBiCG:  Solving for Uz, Initial residual = 0.03443116, Final residual = 1.5046779e-05, No Iterations 2
DILUPBiCG:  Solving for h, Initial residual = 0.0083692469, Final residual = 7.2117902e-06, No Iterations 5
GAMG:  Solving for p_rgh, Initial residual = 0.026105192, Final residual = 1.0122844e-05, No Iterations 4
time step continuity errors : sum local = 0.00039594827, global = 8.8001367e-05, cumulative = 0.0013750049
ExecutionTime = 1.53 s  ClockTime = 2 s
Inflow      : 2.3631019e-05 [kg/s]
Outflow     : 2.3704412e-05 [kg/s]
EnergyInflow  : 6.9820728 [W]
EnergyOutflow : 7.1681038 [W]
EnergyBalance : 0.18603097 [W]
rho max/avg/min : 1.2016459 1.0672966 0.8009325
T   max/avg/min : 440.56442 336.49096 293.69827
P   max/avg/min : 101324.91 101316.16 101307.42
Prg max/avg/min : 101325 101323.98 101319.16
U   max/avg/min : 0.23665418 0.10560601 -0.0194787
Prg max-min : 5.8387936
 
Iteration Number = 38

DILUPBiCG:  Solving for Ux, Initial residual = 0.044893891, Final residual = 4.6089766e-06, No Iterations 3
DILUPBiCG:  Solving for Uy, Initial residual = 0.016365861, Final residual = 1.9770838e-06, No Iterations 3
DILUPBiCG:  Solving for Uz, Initial residual = 0.036564444, Final residual = 1.9838151e-05, No Iterations 2
DILUPBiCG:  Solving for h, Initial residual = 0.0078737744, Final residual = 4.2436171e-06, No Iterations 6
GAMG:  Solving for p_rgh, Initial residual = 0.028548061, Final residual = 1.9368297e-05, No Iterations 3
time step continuity errors : sum local = 0.00072595839, global = -1.35119e-05, cumulative = 0.001361493
ExecutionTime = 1.57 s  ClockTime = 2 s
Inflow      : 2.6743038e-05 [kg/s]
Outflow     : 2.6731769e-05 [kg/s]
EnergyInflow  : 7.9015569 [W]
EnergyOutflow : 8.0818728 [W]
EnergyBalance : 0.18031596 [W]
rho max/avg/min : 1.2016459 1.0654965 0.79864386
T   max/avg/min : 441.82689 337.19379 293.69782
P   max/avg/min : 101324.91 101316.16 101307.42
Prg max/avg/min : 101325 101323.97 101319.13
U   max/avg/min : 0.25155892 0.11163438 -0.016469375
Prg max-min : 5.8711259
 
Iteration Number = 39

DILUPBiCG:  Solving for Ux, Initial residual = 0.032254426, Final residual = 1.6902102e-06, No Iterations 3
DILUPBiCG:  Solving for Uy, Initial residual = 0.016153708, Final residual = 8.4002953e-07, No Iterations 3
DILUPBiCG:  Solving for Uz, Initial residual = 0.032614613, Final residual = 1.592643e-05, No Iterations 2
DILUPBiCG:  Solving for h, Initial residual = 0.0073702251, Final residual = 6.5048933e-06, No Iterations 6
GAMG:  Solving for p_rgh, Initial residual = 0.027555589, Final residual = 1.3123964e-05, No Iterations 4
time step continuity errors : sum local = 0.00045295092, global = 7.4070922e-05, cumulative = 0.0014355639
ExecutionTime = 1.61 s  ClockTime = 2 s
Inflow      : 2.9896057e-05 [kg/s]
Outflow     : 2.9957832e-05 [kg/s]
EnergyInflow  : 8.8331547 [W]
EnergyOutflow : 9.0546463 [W]
EnergyBalance : 0.2214916 [W]
rho max/avg/min : 1.2016459 1.0638024 0.79643198
T   max/avg/min : 443.05395 337.86506 293.69741
P   max/avg/min : 101324.91 101316.15 101307.41
Prg max/avg/min : 101325 101323.95 101319.08
U   max/avg/min : 0.26670335 0.11777616 -0.012579808
Prg max-min : 5.9163849
 
Iteration Number = 40

DILUPBiCG:  Solving for Ux, Initial residual = 0.050559907, Final residual = 4.469779e-05, No Iterations 2
DILUPBiCG:  Solving for Uy, Initial residual = 0.014702171, Final residual = 1.2349434e-06, No Iterations 3
DILUPBiCG:  Solving for Uz, Initial residual = 0.034370214, Final residual = 1.8492675e-05, No Iterations 2
DILUPBiCG:  Solving for h, Initial residual = 0.0068705207, Final residual = 1.7021459e-06, No Iterations 7
GAMG:  Solving for p_rgh, Initial residual = 0.0252175, Final residual = 1.4318144e-05, No Iterations 4
time step continuity errors : sum local = 0.00045613223, global = -4.4847232e-05, cumulative = 0.0013907167
ExecutionTime = 1.66 s  ClockTime = 2 s
Inflow      : 3.2627147e-05 [kg/s]
Outflow     : 3.2589745e-05 [kg/s]
EnergyInflow  : 9.6400887 [W]
EnergyOutflow : 9.8515593 [W]
EnergyBalance : 0.21147064 [W]
rho max/avg/min : 1.2016459 1.0622133 0.79429435
T   max/avg/min : 444.24625 338.50492 293.69693
P   max/avg/min : 101324.91 101316.15 101307.41
Prg max/avg/min : 101325 101323.94 101319.06
U   max/avg/min : 0.28205368 0.1237763 -0.0097007403
Prg max-min : 5.9401169
 
Iteration Number = 41

DILUPBiCG:  Solving for Ux, Initial residual = 0.033251625, Final residual = 1.5475272e-06, No Iterations 3
DILUPBiCG:  Solving for Uy, Initial residual = 0.015835135, Final residual = 1.2634165e-06, No Iterations 3
DILUPBiCG:  Solving for Uz, Initial residual = 0.027929643, Final residual = 1.2252795e-05, No Iterations 2
DILUPBiCG:  Solving for h, Initial residual = 0.0064314183, Final residual = 3.2592925e-06, No Iterations 6
GAMG:  Solving for p_rgh, Initial residual = 0.018798205, Final residual = 1.1938623e-05, No Iterations 4
time step continuity errors : sum local = 0.00036088918, global = 9.3903936e-05, cumulative = 0.0014846206
ExecutionTime = 1.7 s  ClockTime = 2 s
Inflow      : 3.5288974e-05 [kg/s]
Outflow     : 3.536729e-05 [kg/s]
EnergyInflow  : 10.426558 [W]
EnergyOutflow : 10.691055 [W]
EnergyBalance : 0.2644973 [W]
rho max/avg/min : 1.2016459 1.0607216 0.79222775
T   max/avg/min : 445.40514 339.11499 293.69653
P   max/avg/min : 101324.91 101316.15 101307.4
Prg max/avg/min : 101325 101323.92 101319.01
U   max/avg/min : 0.29755727 0.12971359 -0.0052575725
Prg max-min : 5.9847599
 
Iteration Number = 42

DILUPBiCG:  Solving for Ux, Initial residual = 0.041368759, Final residual = 3.8826736e-05, No Iterations 2
DILUPBiCG:  Solving for Uy, Initial residual = 0.017138193, Final residual = 1.1439593e-06, No Iterations 3
DILUPBiCG:  Solving for Uz, Initial residual = 0.030033676, Final residual = 1.506718e-05, No Iterations 2
DILUPBiCG:  Solving for h, Initial residual = 0.0060341218, Final residual = 5.4482552e-06, No Iterations 5
GAMG:  Solving for p_rgh, Initial residual = 0.025395002, Final residual = 1.5172034e-05, No Iterations 3
time step continuity errors : sum local = 0.00044014049, global = -5.1581128e-05, cumulative = 0.0014330395
ExecutionTime = 1.74 s  ClockTime = 2 s
Inflow      : 3.8217002e-05 [kg/s]
Outflow     : 3.8173983e-05 [kg/s]
EnergyInflow  : 11.291679 [W]
EnergyOutflow : 11.539101 [W]
EnergyBalance : 0.24742135 [W]
rho max/avg/min : 1.2016459 1.0593212 0.79022948
T   max/avg/min : 446.53138 339.69653 293.69602
P   max/avg/min : 101324.91 101316.14 101307.4
Prg max/avg/min : 101325 101323.9 101318.98
U   max/avg/min : 0.31326414 0.13575779 -0.00044981162
Prg max-min : 6.0156458
 
Iteration Number = 43

DILUPBiCG:  Solving for Ux, Initial residual = 0.034438219, Final residual = 2.2393676e-06, No Iterations 3
DILUPBiCG:  Solving for Uy, Initial residual = 0.0182895, Final residual = 1.7166356e-06, No Iterations 3
DILUPBiCG:  Solving for Uz, Initial residual = 0.027597643, Final residual = 1.3293491e-05, No Iterations 2
DILUPBiCG:  Solving for h, Initial residual = 0.005644325, Final residual = 3.6951938e-06, No Iterations 5
GAMG:  Solving for p_rgh, Initial residual = 0.013795837, Final residual = 3.0156001e-06, No Iterations 4
time step continuity errors : sum local = 8.3782387e-05, global = -2.7038804e-05, cumulative = 0.0014060007
ExecutionTime = 1.78 s  ClockTime = 2 s
Inflow      : 4.031535e-05 [kg/s]
Outflow     : 4.02928e-05 [kg/s]
EnergyInflow  : 11.911662 [W]
EnergyOutflow : 12.18251 [W]
EnergyBalance : 0.27084814 [W]
rho max/avg/min : 1.2016459 1.0580068 0.78829666
T   max/avg/min : 447.62622 340.25088 293.69552
P   max/avg/min : 101324.91 101316.15 101307.41
Prg max/avg/min : 101325 101323.9 101318.96
U   max/avg/min : 0.32903028 0.1414321 0
Prg max-min : 6.0357019
 
Iteration Number = 44

DILUPBiCG:  Solving for Ux, Initial residual = 0.039882882, Final residual = 3.7203751e-05, No Iterations 2
DILUPBiCG:  Solving for Uy, Initial residual = 0.019109988, Final residual = 3.3585789e-06, No Iterations 3
DILUPBiCG:  Solving for Uz, Initial residual = 0.022081217, Final residual = 8.9674778e-06, No Iterations 2
DILUPBiCG:  Solving for h, Initial residual = 0.0053156115, Final residual = 1.4416794e-06, No Iterations 6
GAMG:  Solving for p_rgh, Initial residual = 0.013291488, Final residual = 8.1846944e-06, No Iterations 4
time step continuity errors : sum local = 0.00022221753, global = 4.0560259e-05, cumulative = 0.0014465609
ExecutionTime = 1.84 s  ClockTime = 2 s
Inflow      : 4.2098684e-05 [kg/s]
Outflow     : 4.2132511e-05 [kg/s]
EnergyInflow  : 12.43857 [W]
EnergyOutflow : 12.742144 [W]
EnergyBalance : 0.30357399 [W]
rho max/avg/min : 1.2016458 1.0567736 0.78642726
T   max/avg/min : 448.6903 340.779 293.69507
P   max/avg/min : 101324.91 101316.15 101307.39
Prg max/avg/min : 101325 101323.88 101318.93
U   max/avg/min : 0.3448972 0.14692601 0
Prg max-min : 6.0724337
 
Iteration Number = 45

DILUPBiCG:  Solving for Ux, Initial residual = 0.032206208, Final residual = 2.0823536e-06, No Iterations 3
DILUPBiCG:  Solving for Uy, Initial residual = 0.02088779, Final residual = 1.4683391e-06, No Iterations 3
DILUPBiCG:  Solving for Uz, Initial residual = 0.022831375, Final residual = 1.0305894e-05, No Iterations 2
DILUPBiCG:  Solving for h, Initial residual = 0.0050148021, Final residual = 4.0400681e-06, No Iterations 6
GAMG:  Solving for p_rgh, Initial residual = 0.011823731, Final residual = 5.7235094e-06, No Iterations 4
time step continuity errors : sum local = 0.00015378386, global = -1.7350871e-05, cumulative = 0.0014292101
ExecutionTime = 1.88 s  ClockTime = 2 s
Inflow      : 4.3849466e-05 [kg/s]
Outflow     : 4.3834996e-05 [kg/s]
EnergyInflow  : 12.95586 [W]
EnergyOutflow : 13.25998 [W]
EnergyBalance : 0.30412063 [W]
rho max/avg/min : 1.2016458 1.0556154 0.78461723
T   max/avg/min : 449.72534 341.28226 293.69456
P   max/avg/min : 101324.91 101316.15 101307.4
Prg max/avg/min : 101325 101323.87 101318.9
U   max/avg/min : 0.36084024 0.15235537 0
Prg max-min : 6.0962362
 
Iteration Number = 46

DILUPBiCG:  Solving for Ux, Initial residual = 0.034438955, Final residual = 2.7529748e-05, No Iterations 2
DILUPBiCG:  Solving for Uy, Initial residual = 0.022132502, Final residual = 1.3429532e-06, No Iterations 3
DILUPBiCG:  Solving for Uz, Initial residual = 0.01994583, Final residual = 8.2621772e-06, No Iterations 2
DILUPBiCG:  Solving for h, Initial residual = 0.0047275003, Final residual = 3.9210512e-06, No Iterations 5
GAMG:  Solving for p_rgh, Initial residual = 0.011687712, Final residual = 9.5725915e-06, No Iterations 3
time step continuity errors : sum local = 0.00025347763, global = -6.2942045e-05, cumulative = 0.001366268
ExecutionTime = 1.91 s  ClockTime = 2 s
Inflow      : 4.5221101e-05 [kg/s]
Outflow     : 4.5168607e-05 [kg/s]
EnergyInflow  : 13.361126 [W]
EnergyOutflow : 13.667445 [W]
EnergyBalance : 0.30631868 [W]
rho max/avg/min : 1.2016458 1.0545261 0.78286741
T   max/avg/min : 450.73055 341.76222 293.69405
P   max/avg/min : 101324.91 101316.15 101307.4
Prg max/avg/min : 101325 101323.86 101318.88
U   max/avg/min : 0.37684277 0.15756018 0
Prg max-min : 6.1220832
 
Iteration Number = 47

DILUPBiCG:  Solving for Ux, Initial residual = 0.029946168, Final residual = 2.7637887e-05, No Iterations 2
DILUPBiCG:  Solving for Uy, Initial residual = 0.02327804, Final residual = 1.993141e-06, No Iterations 3
DILUPBiCG:  Solving for Uz, Initial residual = 0.018441461, Final residual = 7.9862021e-06, No Iterations 2
DILUPBiCG:  Solving for h, Initial residual = 0.0044656704, Final residual = 2.4510984e-06, No Iterations 5
GAMG:  Solving for p_rgh, Initial residual = 0.010988674, Final residual = 2.5493806e-06, No Iterations 4
time step continuity errors : sum local = 6.6986816e-05, global = -1.0230299e-05, cumulative = 0.0013560377
ExecutionTime = 1.95 s  ClockTime = 2 s
Inflow      : 4.622087e-05 [kg/s]
Outflow     : 4.6212338e-05 [kg/s]
EnergyInflow  : 13.65652 [W]
EnergyOutflow : 13.988041 [W]
EnergyBalance : 0.33152135 [W]
rho max/avg/min : 1.2016458 1.0535022 0.78117229
T   max/avg/min : 451.70862 342.21958 293.69353
P   max/avg/min : 101324.91 101316.15 101307.4
Prg max/avg/min : 101325 101323.86 101318.86
U   max/avg/min : 0.39289635 0.16252277 0
Prg max-min : 6.1419935
 
Iteration Number = 48

DILUPBiCG:  Solving for Ux, Initial residual = 0.030028705, Final residual = 2.3100884e-05, No Iterations 2
DILUPBiCG:  Solving for Uy, Initial residual = 0.023946977, Final residual = 2.3286638e-05, No Iterations 2
DILUPBiCG:  Solving for Uz, Initial residual = 0.016136983, Final residual = 6.5536976e-06, No Iterations 2
DILUPBiCG:  Solving for h, Initial residual = 0.0042272032, Final residual = 2.6629289e-06, No Iterations 5
GAMG:  Solving for p_rgh, Initial residual = 0.010773281, Final residual = 9.3166718e-06, No Iterations 3
time step continuity errors : sum local = 0.00024335319, global = 0.00018469368, cumulative = 0.0015407314
ExecutionTime = 2 s  ClockTime = 2 s
Inflow      : 4.6930762e-05 [kg/s]
Outflow     : 4.7084797e-05 [kg/s]
EnergyInflow  : 13.866266 [W]
EnergyOutflow : 14.257103 [W]
EnergyBalance : 0.39083631 [W]
rho max/avg/min : 1.2016458 1.0525387 0.77953181
T   max/avg/min : 452.65924 342.65558 293.69304
P   max/avg/min : 101324.91 101316.15 101307.4
Prg max/avg/min : 101325 101323.85 101318.83
U   max/avg/min : 0.40900777 0.16730201 0
Prg max-min : 6.1688533
 
Iteration Number = 49

DILUPBiCG:  Solving for Ux, Initial residual = 0.028682286, Final residual = 1.2648464e-06, No Iterations 3
DILUPBiCG:  Solving for Uy, Initial residual = 0.02383014, Final residual = 2.8382789e-06, No Iterations 3
DILUPBiCG:  Solving for Uz, Initial residual = 0.015451639, Final residual = 6.6645076e-06, No Iterations 2
DILUPBiCG:  Solving for h, Initial residual = 0.0040072732, Final residual = 3.3595691e-06, No Iterations 5
GAMG:  Solving for p_rgh, Initial residual = 0.010276738, Final residual = 8.9399874e-06, No Iterations 3
time step continuity errors : sum local = 0.00023358901, global = -5.3924512e-05, cumulative = 0.0014868069
ExecutionTime = 2.03 s  ClockTime = 2 s
Inflow      : 4.78427e-05 [kg/s]
Outflow     : 4.7797727e-05 [kg/s]
EnergyInflow  : 14.135709 [W]
EnergyOutflow : 14.478248 [W]
EnergyBalance : 0.34253894 [W]
rho max/avg/min : 1.2016458 1.0516321 0.77794363
T   max/avg/min : 453.58334 343.07105 293.6925
P   max/avg/min : 101324.91 101316.15 101307.4
Prg max/avg/min : 101325 101323.84 101318.8
U   max/avg/min : 0.42519996 0.17202998 0
Prg max-min : 6.1942033
 
Iteration Number = 50

DILUPBiCG:  Solving for Ux, Initial residual = 0.028086031, Final residual = 2.2656095e-05, No Iterations 2
DILUPBiCG:  Solving for Uy, Initial residual = 0.024141522, Final residual = 6.2819301e-06, No Iterations 3
DILUPBiCG:  Solving for Uz, Initial residual = 0.014839223, Final residual = 6.289058e-06, No Iterations 2
DILUPBiCG:  Solving for h, Initial residual = 0.0037946369, Final residual = 3.2510753e-06, No Iterations 5
GAMG:  Solving for p_rgh, Initial residual = 0.0099134132, Final residual = 7.7175828e-06, No Iterations 4
time step continuity errors : sum local = 0.00020090799, global = -6.3639921e-05, cumulative = 0.001423167
ExecutionTime = 2.06 s  ClockTime = 2 s
Inflow      : 4.8546703e-05 [kg/s]
Outflow     : 4.8493627e-05 [kg/s]
EnergyInflow  : 14.343716 [W]
EnergyOutflow : 14.693838 [W]
EnergyBalance : 0.35012219 [W]
rho max/avg/min : 1.2016458 1.0507799 0.77640549
T   max/avg/min : 454.48192 343.46664 293.69198
P   max/avg/min : 101324.91 101316.15 101307.4
Prg max/avg/min : 101325 101323.83 101318.78
U   max/avg/min : 0.44147748 0.17659719 0
Prg max-min : 6.2125326
 
Iteration Number = 51

DILUPBiCG:  Solving for Ux, Initial residual = 0.023925207, Final residual = 6.3812258e-06, No Iterations 3
DILUPBiCG:  Solving for Uy, Initial residual = 0.023687558, Final residual = 1.5533349e-06, No Iterations 3
DILUPBiCG:  Solving for Uz, Initial residual = 0.013325781, Final residual = 5.5697736e-06, No Iterations 2
DILUPBiCG:  Solving for h, Initial residual = 0.0035975871, Final residual = 3.1005287e-06, No Iterations 5
GAMG:  Solving for p_rgh, Initial residual = 0.0095602378, Final residual = 1.9467946e-06, No Iterations 4
time step continuity errors : sum local = 5.0489643e-05, global = 1.3995921e-05, cumulative = 0.0014371629
ExecutionTime = 2.11 s  ClockTime = 2 s
Inflow      : 4.9078538e-05 [kg/s]
Outflow     : 4.909021e-05 [kg/s]
EnergyInflow  : 14.500853 [W]
EnergyOutflow : 14.879612 [W]
EnergyBalance : 0.37875896 [W]
rho max/avg/min : 1.2016458 1.0499784 0.77491577
T   max/avg/min : 455.35564 343.84332 293.69145
P   max/avg/min : 101324.91 101316.15 101307.4
Prg max/avg/min : 101325 101323.83 101318.76
U   max/avg/min : 0.45768299 0.1810123 0
Prg max-min : 6.2363921
 
Iteration Number = 52

DILUPBiCG:  Solving for Ux, Initial residual = 0.026210807, Final residual = 2.1132968e-05, No Iterations 2
DILUPBiCG:  Solving for Uy, Initial residual = 0.024040558, Final residual = 1.1637906e-06, No Iterations 3
DILUPBiCG:  Solving for Uz, Initial residual = 0.012855335, Final residual = 5.516853e-06, No Iterations 2
DILUPBiCG:  Solving for h, Initial residual = 0.003415088, Final residual = 3.2274133e-06, No Iterations 5
GAMG:  Solving for p_rgh, Initial residual = 0.0091320912, Final residual = 4.5378813e-06, No Iterations 4
time step continuity errors : sum local = 0.00011764969, global = -2.5300775e-05, cumulative = 0.0014118621
ExecutionTime = 2.16 s  ClockTime = 2 s
Inflow      : 4.9660915e-05 [kg/s]
Outflow     : 4.9639814e-05 [kg/s]
EnergyInflow  : 14.672923 [W]
EnergyOutflow : 15.051163 [W]
EnergyBalance : 0.37823948 [W]
rho max/avg/min : 1.2016458 1.0492252 0.77347284
T   max/avg/min : 456.20511 344.20172 293.69094
P   max/avg/min : 101324.91 101316.15 101307.4
Prg max/avg/min : 101325 101323.82 101318.74
U   max/avg/min : 0.47375898 0.18535276 0
Prg max-min : 6.2576461
 
Iteration Number = 53

DILUPBiCG:  Solving for Ux, Initial residual = 0.022958154, Final residual = 1.8800342e-05, No Iterations 2
DILUPBiCG:  Solving for Uy, Initial residual = 0.022697929, Final residual = 5.6478539e-06, No Iterations 3
DILUPBiCG:  Solving for Uz, Initial residual = 0.012216784, Final residual = 5.1685424e-06, No Iterations 2
DILUPBiCG:  Solving for h, Initial residual = 0.0032423067, Final residual = 3.029691e-06, No Iterations 5
GAMG:  Solving for p_rgh, Initial residual = 0.0087424034, Final residual = 2.7472842e-06, No Iterations 4
time step continuity errors : sum local = 7.1068656e-05, global = -3.6863971e-05, cumulative = 0.0013749982
ExecutionTime = 2.2 s  ClockTime = 2 s
Inflow      : 5.0181622e-05 [kg/s]
Outflow     : 5.0150878e-05 [kg/s]
EnergyInflow  : 14.826773 [W]
EnergyOutflow : 15.211037 [W]
EnergyBalance : 0.38426409 [W]
rho max/avg/min : 1.2016458 1.0485182 0.77207513
T   max/avg/min : 457.03099 344.54244 293.6904
P   max/avg/min : 101324.91 101316.15 101307.4
Prg max/avg/min : 101325 101323.81 101318.72
U   max/avg/min : 0.48971793 0.18957279 0
Prg max-min : 6.2769592
 
Iteration Number = 54

DILUPBiCG:  Solving for Ux, Initial residual = 0.022719828, Final residual = 1.867707e-05, No Iterations 2
DILUPBiCG:  Solving for Uy, Initial residual = 0.022117479, Final residual = 1.182668e-06, No Iterations 3
DILUPBiCG:  Solving for Uz, Initial residual = 0.011513131, Final residual = 4.9355339e-06, No Iterations 2
DILUPBiCG:  Solving for h, Initial residual = 0.0030805834, Final residual = 2.7379788e-06, No Iterations 5
GAMG:  Solving for p_rgh, Initial residual = 0.0083695995, Final residual = 2.7463796e-06, No Iterations 4
time step continuity errors : sum local = 7.0885746e-05, global = -3.0923398e-05, cumulative = 0.0013440748
ExecutionTime = 2.25 s  ClockTime = 2 s
Inflow      : 5.0647323e-05 [kg/s]
Outflow     : 5.0621533e-05 [kg/s]
EnergyInflow  : 14.964369 [W]
EnergyOutflow : 15.358695 [W]
EnergyBalance : 0.39432579 [W]
rho max/avg/min : 1.2016458 1.0478549 0.77072113
T   max/avg/min : 457.83391 344.86617 293.68991
P   max/avg/min : 101324.91 101316.15 101307.4
Prg max/avg/min : 101325 101323.81 101318.7
U   max/avg/min : 0.50550182 0.1936871 0
Prg max-min : 6.2974789
 
Iteration Number = 55

DILUPBiCG:  Solving for Ux, Initial residual = 0.021450267, Final residual = 1.6118288e-05, No Iterations 2
DILUPBiCG:  Solving for Uy, Initial residual = 0.020868737, Final residual = 1.3844981e-06, No Iterations 3
DILUPBiCG:  Solving for Uz, Initial residual = 0.011079222, Final residual = 4.7088097e-06, No Iterations 2
DILUPBiCG:  Solving for h, Initial residual = 0.0029292208, Final residual = 2.6240073e-06, No Iterations 5
GAMG:  Solving for p_rgh, Initial residual = 0.0079349814, Final residual = 2.5165781e-06, No Iterations 4
time step continuity errors : sum local = 6.4840746e-05, global = -3.1920921e-05, cumulative = 0.0013121538
ExecutionTime = 2.3 s  ClockTime = 2 s
Inflow      : 5.1057153e-05 [kg/s]
Outflow     : 5.1030531e-05 [kg/s]
EnergyInflow  : 15.085459 [W]
EnergyOutflow : 15.487882 [W]
EnergyBalance : 0.40242292 [W]
rho max/avg/min : 1.2016458 1.0472332 0.76940955
T   max/avg/min : 458.61436 345.17353 293.68939
P   max/avg/min : 101324.91 101316.15 101307.4
Prg max/avg/min : 101325 101323.8 101318.68
U   max/avg/min : 0.52108175 0.19769067 0
Prg max-min : 6.3150902
 
Iteration Number = 56

DILUPBiCG:  Solving for Ux, Initial residual = 0.020713155, Final residual = 1.7212891e-05, No Iterations 2
DILUPBiCG:  Solving for Uy, Initial residual = 0.021267595, Final residual = 1.383335e-06, No Iterations 3
DILUPBiCG:  Solving for Uz, Initial residual = 0.010459047, Final residual = 4.5212738e-06, No Iterations 2
DILUPBiCG:  Solving for h, Initial residual = 0.0027872558, Final residual = 2.3038273e-06, No Iterations 5
GAMG:  Solving for p_rgh, Initial residual = 0.0075721022, Final residual = 1.6805855e-06, No Iterations 4
time step continuity errors : sum local = 4.3227196e-05, global = -2.5083961e-05, cumulative = 0.0012870699
ExecutionTime = 2.34 s  ClockTime = 3 s
Inflow      : 5.142522e-05 [kg/s]
Outflow     : 5.14043e-05 [kg/s]
EnergyInflow  : 15.194209 [W]
EnergyOutflow : 15.606415 [W]
EnergyBalance : 0.41220663 [W]
rho max/avg/min : 1.2016458 1.0466509 0.76813902
T   max/avg/min : 459.37293 345.46516 293.68894
P   max/avg/min : 101324.91 101316.15 101307.4
Prg max/avg/min : 101325 101323.8 101318.66
U   max/avg/min : 0.53643941 0.20159211 0
Prg max-min : 6.33452
 
Iteration Number = 57

DILUPBiCG:  Solving for Ux, Initial residual = 0.019581515, Final residual = 1.5159408e-05, No Iterations 2
DILUPBiCG:  Solving for Uy, Initial residual = 0.021042947, Final residual = 4.4170517e-06, No Iterations 3
DILUPBiCG:  Solving for Uz, Initial residual = 0.010096804, Final residual = 4.3031944e-06, No Iterations 2
DILUPBiCG:  Solving for h, Initial residual = 0.0026540352, Final residual = 2.2758272e-06, No Iterations 5
GAMG:  Solving for p_rgh, Initial residual = 0.0071912644, Final residual = 2.3406699e-06, No Iterations 4
time step continuity errors : sum local = 6.0116634e-05, global = -2.5813628e-05, cumulative = 0.0012612562
ExecutionTime = 2.39 s  ClockTime = 3 s
Inflow      : 5.1745921e-05 [kg/s]
Outflow     : 5.1724392e-05 [kg/s]
EnergyInflow  : 15.288964 [W]
EnergyOutflow : 15.708842 [W]
EnergyBalance : 0.41987842 [W]
rho max/avg/min : 1.2016458 1.0461061 0.76690839
T   max/avg/min : 460.11006 345.74167 293.68846
P   max/avg/min : 101324.91 101316.15 101307.4
Prg max/avg/min : 101325 101323.79 101318.65
U   max/avg/min : 0.55185178 0.2053897 0
Prg max-min : 6.3508254
 
Iteration Number = 58

DILUPBiCG:  Solving for Ux, Initial residual = 0.019136947, Final residual = 1.6013861e-05, No Iterations 2
DILUPBiCG:  Solving for Uy, Initial residual = 0.020749637, Final residual = 5.5462906e-06, No Iterations 3
DILUPBiCG:  Solving for Uz, Initial residual = 0.0095914709, Final residual = 4.169848e-06, No Iterations 2
DILUPBiCG:  Solving for h, Initial residual = 0.0025290304, Final residual = 2.1145016e-06, No Iterations 5
GAMG:  Solving for p_rgh, Initial residual = 0.0068446605, Final residual = 1.9325173e-06, No Iterations 4
time step continuity errors : sum local = 4.9565189e-05, global = -2.0509847e-05, cumulative = 0.0012407464
ExecutionTime = 2.44 s  ClockTime = 3 s
Inflow      : 5.2011974e-05 [kg/s]
Outflow     : 5.1994869e-05 [kg/s]
EnergyInflow  : 15.367572 [W]
EnergyOutflow : 15.796362 [W]
EnergyBalance : 0.42878936 [W]
rho max/avg/min : 1.2016458 1.0455968 0.76571651
T   max/avg/min : 460.82625 346.00365 293.68807
P   max/avg/min : 101324.91 101316.15 101307.4
Prg max/avg/min : 101325 101323.79 101318.63
U   max/avg/min : 0.56720707 0.20908524 0
Prg max-min : 6.3688237
 
Iteration Number = 59

DILUPBiCG:  Solving for Ux, Initial residual = 0.017841793, Final residual = 1.3876629e-05, No Iterations 2
DILUPBiCG:  Solving for Uy, Initial residual = 0.019946214, Final residual = 1.1335714e-06, No Iterations 3
DILUPBiCG:  Solving for Uz, Initial residual = 0.0092371088, Final residual = 3.9822359e-06, No Iterations 2
DILUPBiCG:  Solving for h, Initial residual = 0.0024114754, Final residual = 2.3307718e-06, No Iterations 5
GAMG:  Solving for p_rgh, Initial residual = 0.0065108292, Final residual = 1.6261805e-06, No Iterations 4
time step continuity errors : sum local = 4.166212e-05, global = -1.3144344e-05, cumulative = 0.0012276021
ExecutionTime = 2.48 s  ClockTime = 3 s
Inflow      : 5.2248741e-05 [kg/s]
Outflow     : 5.2237778e-05 [kg/s]
EnergyInflow  : 15.437528 [W]
EnergyOutflow : 15.875492 [W]
EnergyBalance : 0.43796427 [W]
rho max/avg/min : 1.2016458 1.0451212 0.76456228
T   max/avg/min : 461.52194 346.25171 293.68765
P   max/avg/min : 101324.91 101316.15 101307.4
Prg max/avg/min : 101325 101323.78 101318.61
U   max/avg/min : 0.58238463 0.21268715 0
Prg max-min : 6.3846094
 
Iteration Number = 60

DILUPBiCG:  Solving for Ux, Initial residual = 0.017700777, Final residual = 1.5004121e-05, No Iterations 2
DILUPBiCG:  Solving for Uy, Initial residual = 0.020437476, Final residual = 5.7853073e-06, No Iterations 3
DILUPBiCG:  Solving for Uz, Initial residual = 0.0088631418, Final residual = 3.8754726e-06, No Iterations 2
DILUPBiCG:  Solving for h, Initial residual = 0.0023004445, Final residual = 2.1419143e-06, No Iterations 5
GAMG:  Solving for p_rgh, Initial residual = 0.006210825, Final residual = 2.0838932e-06, No Iterations 4
time step continuity errors : sum local = 5.333761e-05, global = 6.5031403e-07, cumulative = 0.0012282524
ExecutionTime = 2.53 s  ClockTime = 3 s
Inflow      : 5.241972e-05 [kg/s]
Outflow     : 5.2420262e-05 [kg/s]
EnergyInflow  : 15.488046 [W]
EnergyOutflow : 15.936531 [W]
EnergyBalance : 0.448485 [W]
rho max/avg/min : 1.2016458 1.0446776 0.76344472
T   max/avg/min : 462.19754 346.48637 293.68731
P   max/avg/min : 101324.91 101316.15 101307.4
Prg max/avg/min : 101325 101323.78 101318.6
U   max/avg/min : 0.59738553 0.21618631 0
Prg max-min : 6.4005895
 
Iteration Number = 61

DILUPBiCG:  Solving for Ux, Initial residual = 0.0168879, Final residual = 1.3926642e-05, No Iterations 2
DILUPBiCG:  Solving for Uy, Initial residual = 0.021834029, Final residual = 1.4039031e-06, No Iterations 3
DILUPBiCG:  Solving for Uz, Initial residual = 0.0084834637, Final residual = 4.9837275e-06, No Iterations 2
DILUPBiCG:  Solving for h, Initial residual = 0.0021960951, Final residual = 3.9342397e-07, No Iterations 6
GAMG:  Solving for p_rgh, Initial residual = 0.0059085409, Final residual = 1.6260327e-06, No Iterations 4
time step continuity errors : sum local = 4.1588587e-05, global = 2.0848341e-05, cumulative = 0.0012491007
ExecutionTime = 2.57 s  ClockTime = 3 s
Inflow      : 5.2576423e-05 [kg/s]
Outflow     : 5.259381e-05 [kg/s]
EnergyInflow  : 15.534346 [W]
EnergyOutflow : 15.99468 [W]
EnergyBalance : 0.46033409 [W]
rho max/avg/min : 1.2016458 1.0442649 0.76236276
T   max/avg/min : 462.8535 346.70792 293.68696
P   max/avg/min : 101324.91 101316.15 101307.4
Prg max/avg/min : 101325 101323.78 101318.58
U   max/avg/min : 0.61215172 0.2195985 0
Prg max-min : 6.4162615
 
Iteration Number = 62

DILUPBiCG:  Solving for Ux, Initial residual = 0.016207847, Final residual = 1.3268039e-05, No Iterations 2
DILUPBiCG:  Solving for Uy, Initial residual = 0.022274098, Final residual = 6.7601842e-06, No Iterations 3
DILUPBiCG:  Solving for Uz, Initial residual = 0.0082247301, Final residual = 3.7466093e-06, No Iterations 2
DILUPBiCG:  Solving for h, Initial residual = 0.0020971118, Final residual = 3.2039398e-07, No Iterations 6
GAMG:  Solving for p_rgh, Initial residual = 0.0056458919, Final residual = 1.6783781e-06, No Iterations 4
time step continuity errors : sum local = 4.2919743e-05, global = 3.0599129e-06, cumulative = 0.0012521606
ExecutionTime = 2.62 s  ClockTime = 3 s
Inflow      : 5.2704355e-05 [kg/s]
Outflow     : 5.2706907e-05 [kg/s]
EnergyInflow  : 15.572145 [W]
EnergyOutflow : 16.034731 [W]
EnergyBalance : 0.4625859 [W]
rho max/avg/min : 1.2016458 1.0438809 0.76131552
T   max/avg/min : 463.49019 346.91718 293.68669
P   max/avg/min : 101324.91 101316.15 101307.4
Prg max/avg/min : 101325 101323.77 101318.57
U   max/avg/min : 0.62668667 0.22292635 0
Prg max-min : 6.4312239
 
Iteration Number = 63

DILUPBiCG:  Solving for Ux, Initial residual = 0.015854531, Final residual = 1.2903284e-05, No Iterations 2
DILUPBiCG:  Solving for Uy, Initial residual = 0.02274458, Final residual = 1.7029598e-06, No Iterations 3
DILUPBiCG:  Solving for Uz, Initial residual = 0.0078932292, Final residual = 2.7514831e-07, No Iterations 3
DILUPBiCG:  Solving for h, Initial residual = 0.0020033131, Final residual = 2.0243949e-07, No Iterations 6
GAMG:  Solving for p_rgh, Initial residual = 0.0053920708, Final residual = 1.5288974e-06, No Iterations 4
time step continuity errors : sum local = 3.9073263e-05, global = 2.2101942e-05, cumulative = 0.0012742626
ExecutionTime = 2.66 s  ClockTime = 3 s
Inflow      : 5.280426e-05 [kg/s]
Outflow     : 5.2822693e-05 [kg/s]
EnergyInflow  : 15.601663 [W]
EnergyOutflow : 16.075366 [W]
EnergyBalance : 0.47370294 [W]
rho max/avg/min : 1.2016458 1.0435241 0.76030218
T   max/avg/min : 464.10794 347.11463 293.6864
P   max/avg/min : 101324.91 101316.15 101307.4
Prg max/avg/min : 101325 101323.77 101318.55
U   max/avg/min : 0.64098671 0.22616973 0
Prg max-min : 6.4458551
 
Iteration Number = 64

DILUPBiCG:  Solving for Ux, Initial residual = 0.015594356, Final residual = 1.3429319e-05, No Iterations 2
DILUPBiCG:  Solving for Uy, Initial residual = 0.023206352, Final residual = 1.3599042e-06, No Iterations 3
DILUPBiCG:  Solving for Uz, Initial residual = 0.0076424482, Final residual = 7.1156616e-06, No Iterations 2
DILUPBiCG:  Solving for h, Initial residual = 0.0019145231, Final residual = 3.6202345e-07, No Iterations 6
GAMG:  Solving for p_rgh, Initial residual = 0.0051689253, Final residual = 1.6498852e-06, No Iterations 4
time step continuity errors : sum local = 4.2169073e-05, global = -1.2374412e-06, cumulative = 0.0012730251
ExecutionTime = 2.71 s  ClockTime = 3 s
Inflow      : 5.2886185e-05 [kg/s]
Outflow     : 5.2885153e-05 [kg/s]
EnergyInflow  : 15.625868 [W]
EnergyOutflow : 16.100006 [W]
EnergyBalance : 0.47413705 [W]
rho max/avg/min : 1.2016458 1.043193 0.75932203
T   max/avg/min : 464.70702 347.30078 293.68625
P   max/avg/min : 101324.91 101316.15 101307.4
Prg max/avg/min : 101325 101323.77 101318.54
U   max/avg/min : 0.65502998 0.22933288 0
Prg max-min : 6.4597624
 
Iteration Number = 65

DILUPBiCG:  Solving for Ux, Initial residual = 0.014490175, Final residual = 1.1755465e-05, No Iterations 2
DILUPBiCG:  Solving for Uy, Initial residual = 0.023302858, Final residual = 1.5173601e-07, No Iterations 4
DILUPBiCG:  Solving for Uz, Initial residual = 0.0073687178, Final residual = 1.869607e-07, No Iterations 3
DILUPBiCG:  Solving for h, Initial residual = 0.001830128, Final residual = 9.6203683e-07, No Iterations 6
GAMG:  Solving for p_rgh, Initial residual = 0.0049448275, Final residual = 1.2164716e-06, No Iterations 4
time step continuity errors : sum local = 3.1069573e-05, global = 2.0339175e-05, cumulative = 0.0012933643
ExecutionTime = 2.76 s  ClockTime = 3 s
Inflow      : 5.2935521e-05 [kg/s]
Outflow     : 5.2952483e-05 [kg/s]
EnergyInflow  : 15.640445 [W]
EnergyOutflow : 16.125861 [W]
EnergyBalance : 0.4854157 [W]
rho max/avg/min : 1.2016458 1.0428867 0.75837367
T   max/avg/min : 465.28814 347.47599 293.68613
P   max/avg/min : 101324.91 101316.15 101307.4
Prg max/avg/min : 101325 101323.76 101318.52
U   max/avg/min : 0.66883926 0.23241706 0
Prg max-min : 6.4736285
 
Iteration Number = 66

DILUPBiCG:  Solving for Ux, Initial residual = 0.014631015, Final residual = 1.3012305e-05, No Iterations 2
DILUPBiCG:  Solving for Uy, Initial residual = 0.02237304, Final residual = 1.3075283e-06, No Iterations 3
DILUPBiCG:  Solving for Uz, Initial residual = 0.0071461193, Final residual = 4.4384656e-07, No Iterations 3
DILUPBiCG:  Solving for h, Initial residual = 0.001750058, Final residual = 2.5321346e-07, No Iterations 6
GAMG:  Solving for p_rgh, Initial residual = 0.0047361514, Final residual = 1.5872897e-06, No Iterations 4
time step continuity errors : sum local = 4.0557905e-05, global = -7.8471082e-06, cumulative = 0.0012855172
ExecutionTime = 2.82 s  ClockTime = 3 s
Inflow      : 5.2975302e-05 [kg/s]
Outflow     : 5.2968758e-05 [kg/s]
EnergyInflow  : 15.652199 [W]
EnergyOutflow : 16.136426 [W]
EnergyBalance : 0.48422706 [W]
rho max/avg/min : 1.2016458 1.0426035 0.75745695
T   max/avg/min : 465.85127 347.64082 293.68607
P   max/avg/min : 101324.91 101316.15 101307.4
Prg max/avg/min : 101325 101323.76 101318.51
U   max/avg/min : 0.68241385 0.23542402 0
Prg max-min : 6.4865331
 
Iteration Number = 67

DILUPBiCG:  Solving for Ux, Initial residual = 0.013949526, Final residual = 1.1351451e-05, No Iterations 2
DILUPBiCG:  Solving for Uy, Initial residual = 0.022831722, Final residual = 6.4339435e-06, No Iterations 3
DILUPBiCG:  Solving for Uz, Initial residual = 0.0068991075, Final residual = 1.3947577e-07, No Iterations 3
DILUPBiCG:  Solving for h, Initial residual = 0.0016739928, Final residual = 4.2276999e-07, No Iterations 6
GAMG:  Solving for p_rgh, Initial residual = 0.0045415332, Final residual = 1.1610259e-06, No Iterations 4
time step continuity errors : sum local = 2.9653903e-05, global = 1.4830071e-05, cumulative = 0.0013003473
ExecutionTime = 2.86 s  ClockTime = 3 s
Inflow      : 5.2984066e-05 [kg/s]
Outflow     : 5.2996434e-05 [kg/s]
EnergyInflow  : 15.654789 [W]
EnergyOutflow : 16.150158 [W]
EnergyBalance : 0.49536938 [W]
rho max/avg/min : 1.2016458 1.0423423 0.75657133
T   max/avg/min : 466.39658 347.79569 293.68602
P   max/avg/min : 101324.91 101316.15 101307.4
Prg max/avg/min : 101325 101323.76 101318.5
U   max/avg/min : 0.69584008 0.23835926 0
Prg max-min : 6.4996951
 
Iteration Number = 68

DILUPBiCG:  Solving for Ux, Initial residual = 0.013753263, Final residual = 1.1915904e-05, No Iterations 2
DILUPBiCG:  Solving for Uy, Initial residual = 0.023524822, Final residual = 1.6937065e-06, No Iterations 3
DILUPBiCG:  Solving for Uz, Initial residual = 0.0067195198, Final residual = 2.3733085e-07, No Iterations 3
DILUPBiCG:  Solving for h, Initial residual = 0.0016015477, Final residual = 4.1714596e-07, No Iterations 6
GAMG:  Solving for p_rgh, Initial residual = 0.0043677505, Final residual = 1.0667233e-06, No Iterations 4
time step continuity errors : sum local = 2.7257215e-05, global = -1.280562e-05, cumulative = 0.0012875416
ExecutionTime = 2.89 s  ClockTime = 3 s
Inflow      : 5.2987952e-05 [kg/s]
Outflow     : 5.2977273e-05 [kg/s]
EnergyInflow  : 15.655937 [W]
EnergyOutflow : 16.149839 [W]
EnergyBalance : 0.4939015 [W]
rho max/avg/min : 1.2016458 1.0421021 0.75571526
T   max/avg/min : 466.92491 347.94096 293.68599
P   max/avg/min : 101324.91 101316.15 101307.4
Prg max/avg/min : 101325 101323.76 101318.48
U   max/avg/min : 0.70900966 0.24122156 0
Prg max-min : 6.511531
 
Iteration Number = 69

DILUPBiCG:  Solving for Ux, Initial residual = 0.012912101, Final residual = 1.110865e-05, No Iterations 2
DILUPBiCG:  Solving for Uy, Initial residual = 0.024103675, Final residual = 2.739545e-06, No Iterations 3
DILUPBiCG:  Solving for Uz, Initial residual = 0.0064881974, Final residual = 1.2520625e-07, No Iterations 3
DILUPBiCG:  Solving for h, Initial residual = 0.0015325946, Final residual = 3.1309827e-07, No Iterations 6
GAMG:  Solving for p_rgh, Initial residual = 0.0041979171, Final residual = 9.0727761e-07, No Iterations 4
time step continuity errors : sum local = 2.3177349e-05, global = 6.1033409e-06, cumulative = 0.001293645
ExecutionTime = 2.94 s  ClockTime = 3 s
Inflow      : 5.2962333e-05 [kg/s]
Outflow     : 5.2967423e-05 [kg/s]
EnergyInflow  : 15.648367 [W]
[...]
time step continuity errors : sum local = 3.8818939e-06, global = -2.7285327e-07, cumulative = 0.00034396497
ExecutionTime = 19.9 s  ClockTime = 20 s
Inflow      : 5.008525e-05 [kg/s]
Outflow     : 5.0085023e-05 [kg/s]
EnergyInflow  : 14.798298 [W]
EnergyOutflow : 15.406544 [W]
EnergyBalance : 0.60824606 [W]
rho max/avg/min : 1.2016458 1.0519598 0.74664192
T   max/avg/min : 472.59902 345.04913 293.68596
P   max/avg/min : 101324.91 101316.15 101307.4
Prg max/avg/min : 101325 101323.82 101318.34
U   max/avg/min : 1.4671437 0.40243923 0
Prg max-min : 6.6569568
 
Iteration Number = 506

DILUPBiCG:  Solving for Ux, Initial residual = 1.3718538e-05, Final residual = 3.0222489e-07, No Iterations 1
DILUPBiCG:  Solving for Uy, Initial residual = 0.018935684, Final residual = 1.2599762e-06, No Iterations 3
DILUPBiCG:  Solving for Uz, Initial residual = 1.0473685e-05, Final residual = 1.123924e-08, No Iterations 2
DILUPBiCG:  Solving for h, Initial residual = 1.213358e-06, Final residual = 2.7706769e-07, No Iterations 1
GAMG:  Solving for p_rgh, Initial residual = 1.8442651e-06, Final residual = 1.6313155e-07, No Iterations 1
time step continuity errors : sum local = 3.8480633e-06, global = -2.9131497e-07, cumulative = 0.00034367366
ExecutionTime = 19.94 s  ClockTime = 20 s
Inflow      : 5.0089185e-05 [kg/s]
Outflow     : 5.0088942e-05 [kg/s]
EnergyInflow  : 14.799461 [W]
EnergyOutflow : 15.407702 [W]
EnergyBalance : 0.60824125 [W]
rho max/avg/min : 1.2016458 1.0519603 0.74664288
T   max/avg/min : 472.59841 345.04894 293.68596
P   max/avg/min : 101324.91 101316.15 101307.4
Prg max/avg/min : 101325 101323.82 101318.34
U   max/avg/min : 1.4671604 0.40244599 0
Prg max-min : 6.6569434
 
Iteration Number = 507

DILUPBiCG:  Solving for Ux, Initial residual = 1.358499e-05, Final residual = 2.9996186e-07, No Iterations 1
DILUPBiCG:  Solving for Uy, Initial residual = 0.019921434, Final residual = 1.0404154e-05, No Iterations 3
DILUPBiCG:  Solving for Uz, Initial residual = 1.0391321e-05, Final residual = 1.1212472e-08, No Iterations 2
DILUPBiCG:  Solving for h, Initial residual = 1.1979122e-06, Final residual = 2.7357763e-07, No Iterations 1
GAMG:  Solving for p_rgh, Initial residual = 1.8220457e-06, Final residual = 1.6211446e-07, No Iterations 1
time step continuity errors : sum local = 3.8219155e-06, global = -3.0613164e-07, cumulative = 0.00034336753
ExecutionTime = 19.98 s  ClockTime = 20 s
Inflow      : 5.0093108e-05 [kg/s]
Outflow     : 5.0092853e-05 [kg/s]
EnergyInflow  : 14.80062 [W]
EnergyOutflow : 15.408857 [W]
EnergyBalance : 0.60823734 [W]
rho max/avg/min : 1.2016458 1.0519607 0.74664382
T   max/avg/min : 472.59782 345.04875 293.68596
P   max/avg/min : 101324.91 101316.15 101307.4
Prg max/avg/min : 101325 101323.82 101318.34
U   max/avg/min : 1.467177 0.4024527 0
Prg max-min : 6.6569301
 
Iteration Number = 508

DILUPBiCG:  Solving for Ux, Initial residual = 1.3504168e-05, Final residual = 2.9659667e-07, No Iterations 1
DILUPBiCG:  Solving for Uy, Initial residual = 0.019012084, Final residual = 9.7779444e-07, No Iterations 3
DILUPBiCG:  Solving for Uz, Initial residual = 1.0309029e-05, Final residual = 1.1178616e-08, No Iterations 2
DILUPBiCG:  Solving for h, Initial residual = 1.1827374e-06, Final residual = 2.7024903e-07, No Iterations 1
GAMG:  Solving for p_rgh, Initial residual = 1.8002377e-06, Final residual = 1.6114848e-07, No Iterations 1
time step continuity errors : sum local = 3.7997762e-06, global = -3.163097e-07, cumulative = 0.00034305122
ExecutionTime = 20.01 s  ClockTime = 20 s
Inflow      : 5.009702e-05 [kg/s]
Outflow     : 5.0096756e-05 [kg/s]
EnergyInflow  : 14.801776 [W]
EnergyOutflow : 15.41001 [W]
EnergyBalance : 0.60823458 [W]
rho max/avg/min : 1.2016458 1.0519612 0.74664475
T   max/avg/min : 472.59723 345.04856 293.68596
P   max/avg/min : 101324.91 101316.15 101307.4
Prg max/avg/min : 101325 101323.82 101318.34
U   max/avg/min : 1.4671933 0.40245934 0
Prg max-min : 6.6569169
 
Iteration Number = 509

DILUPBiCG:  Solving for Ux, Initial residual = 1.3395282e-05, Final residual = 2.9391095e-07, No Iterations 1
DILUPBiCG:  Solving for Uy, Initial residual = 0.019568282, Final residual = 7.5163927e-06, No Iterations 3
DILUPBiCG:  Solving for Uz, Initial residual = 1.0226977e-05, Final residual = 1.1148935e-08, No Iterations 2
DILUPBiCG:  Solving for h, Initial residual = 1.1678761e-06, Final residual = 2.6696885e-07, No Iterations 1
GAMG:  Solving for p_rgh, Initial residual = 1.7789686e-06, Final residual = 1.6047258e-07, No Iterations 1
time step continuity errors : sum local = 3.7826573e-06, global = -3.2004983e-07, cumulative = 0.00034273117
ExecutionTime = 20.04 s  ClockTime = 20 s
Inflow      : 5.0100919e-05 [kg/s]
Outflow     : 5.0100652e-05 [kg/s]
EnergyInflow  : 14.802928 [W]
EnergyOutflow : 15.411161 [W]
EnergyBalance : 0.60823342 [W]
rho max/avg/min : 1.2016458 1.0519616 0.74664567
T   max/avg/min : 472.59665 345.04837 293.68596
P   max/avg/min : 101324.91 101316.15 101307.4
Prg max/avg/min : 101325 101323.82 101318.34
U   max/avg/min : 1.4672094 0.40246592 0
Prg max-min : 6.656904
 
Iteration Number = 510

DILUPBiCG:  Solving for Ux, Initial residual = 1.3331631e-05, Final residual = 2.9192956e-07, No Iterations 1
DILUPBiCG:  Solving for Uy, Initial residual = 0.019520362, Final residual = 1.902052e-06, No Iterations 3
DILUPBiCG:  Solving for Uz, Initial residual = 1.0145657e-05, Final residual = 1.1114891e-08, No Iterations 2
DILUPBiCG:  Solving for h, Initial residual = 1.1531368e-06, Final residual = 2.6371462e-07, No Iterations 1
GAMG:  Solving for p_rgh, Initial residual = 1.7585884e-06, Final residual = 1.5980983e-07, No Iterations 1
time step continuity errors : sum local = 3.7673331e-06, global = -3.1722865e-07, cumulative = 0.00034241394
ExecutionTime = 20.07 s  ClockTime = 20 s
Inflow      : 5.0104804e-05 [kg/s]
Outflow     : 5.010454e-05 [kg/s]
EnergyInflow  : 14.804076 [W]
EnergyOutflow : 15.41231 [W]
EnergyBalance : 0.60823387 [W]
rho max/avg/min : 1.2016458 1.0519621 0.74664658
T   max/avg/min : 472.59607 345.04819 293.68596
P   max/avg/min : 101324.91 101316.15 101307.4
Prg max/avg/min : 101325 101323.82 101318.34
U   max/avg/min : 1.4672253 0.40247245 0
Prg max-min : 6.6568912
 
Iteration Number = 511

DILUPBiCG:  Solving for Ux, Initial residual = 1.3211364e-05, Final residual = 2.8971098e-07, No Iterations 1
DILUPBiCG:  Solving for Uy, Initial residual = 0.019192088, Final residual = 1.5693772e-06, No Iterations 3
DILUPBiCG:  Solving for Uz, Initial residual = 1.0064913e-05, Final residual = 1.108565e-08, No Iterations 2
DILUPBiCG:  Solving for h, Initial residual = 1.1386021e-06, Final residual = 2.6041071e-07, No Iterations 1
GAMG:  Solving for p_rgh, Initial residual = 1.7384649e-06, Final residual = 1.5925442e-07, No Iterations 1
time step continuity errors : sum local = 3.7526274e-06, global = -3.0772658e-07, cumulative = 0.00034210621
ExecutionTime = 20.12 s  ClockTime = 20 s
Inflow      : 5.0108676e-05 [kg/s]
Outflow     : 5.010842e-05 [kg/s]
EnergyInflow  : 14.80522 [W]
EnergyOutflow : 15.413456 [W]
EnergyBalance : 0.60823597 [W]
rho max/avg/min : 1.2016458 1.0519625 0.74664747
T   max/avg/min : 472.59551 345.04801 293.68596
P   max/avg/min : 101324.91 101316.15 101307.4
Prg max/avg/min : 101325 101323.82 101318.34
U   max/avg/min : 1.4672409 0.40247892 0
Prg max-min : 6.6568785
 
Iteration Number = 512

DILUPBiCG:  Solving for Ux, Initial residual = 1.3096921e-05, Final residual = 2.8936119e-07, No Iterations 1
DILUPBiCG:  Solving for Uy, Initial residual = 0.01900825, Final residual = 1.7931802e-06, No Iterations 3
DILUPBiCG:  Solving for Uz, Initial residual = 9.9854704e-06, Final residual = 1.1059466e-08, No Iterations 2
DILUPBiCG:  Solving for h, Initial residual = 1.12419e-06, Final residual = 2.5711688e-07, No Iterations 1
GAMG:  Solving for p_rgh, Initial residual = 1.7185474e-06, Final residual = 1.5850939e-07, No Iterations 1
time step continuity errors : sum local = 3.7364212e-06, global = -2.9383317e-07, cumulative = 0.00034181238
ExecutionTime = 20.15 s  ClockTime = 20 s
Inflow      : 5.0112537e-05 [kg/s]
Outflow     : 5.0112292e-05 [kg/s]
EnergyInflow  : 14.80636 [W]
EnergyOutflow : 15.4146 [W]
EnergyBalance : 0.60823916 [W]
rho max/avg/min : 1.2016458 1.051963 0.74664835
T   max/avg/min : 472.59495 345.04783 293.68596
P   max/avg/min : 101324.91 101316.15 101307.4
Prg max/avg/min : 101325 101323.82 101318.34
U   max/avg/min : 1.4672563 0.40248533 0
Prg max-min : 6.6568661
 
Iteration Number = 513

DILUPBiCG:  Solving for Ux, Initial residual = 1.3030183e-05, Final residual = 2.9009573e-07, No Iterations 1
DILUPBiCG:  Solving for Uy, Initial residual = 0.01961808, Final residual = 2.4494321e-06, No Iterations 3
DILUPBiCG:  Solving for Uz, Initial residual = 9.9076127e-06, Final residual = 1.1042929e-08, No Iterations 2
DILUPBiCG:  Solving for h, Initial residual = 1.1099671e-06, Final residual = 2.5389844e-07, No Iterations 1
GAMG:  Solving for p_rgh, Initial residual = 1.6989975e-06, Final residual = 1.578482e-07, No Iterations 1
time step continuity errors : sum local = 3.7220021e-06, global = -2.7616891e-07, cumulative = 0.00034153621
ExecutionTime = 20.18 s  ClockTime = 20 s
Inflow      : 5.0116387e-05 [kg/s]
Outflow     : 5.0116156e-05 [kg/s]
EnergyInflow  : 14.807498 [W]
EnergyOutflow : 15.415741 [W]
EnergyBalance : 0.60824328 [W]
rho max/avg/min : 1.2016458 1.0519634 0.74664922
T   max/avg/min : 472.5944 345.04765 293.68596
P   max/avg/min : 101324.91 101316.15 101307.4
Prg max/avg/min : 101325 101323.82 101318.34
U   max/avg/min : 1.4672716 0.40249169 0
Prg max-min : 6.6568539
 
Iteration Number = 514

DILUPBiCG:  Solving for Ux, Initial residual = 1.2935665e-05, Final residual = 2.8755412e-07, No Iterations 1
DILUPBiCG:  Solving for Uy, Initial residual = 0.019364795, Final residual = 2.2065079e-06, No Iterations 3
DILUPBiCG:  Solving for Uz, Initial residual = 9.8313575e-06, Final residual = 1.1029566e-08, No Iterations 2
DILUPBiCG:  Solving for h, Initial residual = 1.0959684e-06, Final residual = 2.5078116e-07, No Iterations 1
GAMG:  Solving for p_rgh, Initial residual = 1.6806551e-06, Final residual = 1.5742154e-07, No Iterations 1
time step continuity errors : sum local = 3.7120497e-06, global = -2.5747235e-07, cumulative = 0.00034127874
ExecutionTime = 20.22 s  ClockTime = 20 s
Inflow      : 5.0120228e-05 [kg/s]
Outflow     : 5.0120013e-05 [kg/s]
EnergyInflow  : 14.808633 [W]
EnergyOutflow : 15.41688 [W]
EnergyBalance : 0.60824766 [W]
rho max/avg/min : 1.2016458 1.0519638 0.74665008
T   max/avg/min : 472.59386 345.04748 293.68596
P   max/avg/min : 101324.91 101316.15 101307.4
Prg max/avg/min : 101325 101323.82 101318.34
U   max/avg/min : 1.4672866 0.40249799 0
Prg max-min : 6.6568418
 
Iteration Number = 515

DILUPBiCG:  Solving for Ux, Initial residual = 1.2816635e-05, Final residual = 2.8404339e-07, No Iterations 1
DILUPBiCG:  Solving for Uy, Initial residual = 0.018927056, Final residual = 1.6590588e-06, No Iterations 3
DILUPBiCG:  Solving for Uz, Initial residual = 9.7574609e-06, Final residual = 1.1036461e-08, No Iterations 2
DILUPBiCG:  Solving for h, Initial residual = 1.082223e-06, Final residual = 2.4782356e-07, No Iterations 1
GAMG:  Solving for p_rgh, Initial residual = 1.6621875e-06, Final residual = 1.5728049e-07, No Iterations 1
time step continuity errors : sum local = 3.7059957e-06, global = -2.3769132e-07, cumulative = 0.00034104105
ExecutionTime = 20.24 s  ClockTime = 21 s
Inflow      : 5.0124061e-05 [kg/s]
Outflow     : 5.0123863e-05 [kg/s]
EnergyInflow  : 14.809765 [W]
EnergyOutflow : 15.418018 [W]
EnergyBalance : 0.60825232 [W]
rho max/avg/min : 1.2016458 1.0519642 0.74665092
T   max/avg/min : 472.59332 345.0473 293.68596
P   max/avg/min : 101324.91 101316.15 101307.4
Prg max/avg/min : 101325 101323.82 101318.34
U   max/avg/min : 1.4673014 0.40250424 0
Prg max-min : 6.6568299
 
Iteration Number = 516

DILUPBiCG:  Solving for Ux, Initial residual = 1.2766163e-05, Final residual = 2.8043391e-07, No Iterations 1
DILUPBiCG:  Solving for Uy, Initial residual = 0.019650752, Final residual = 1.8671212e-06, No Iterations 3
DILUPBiCG:  Solving for Uz, Initial residual = 9.6856863e-06, Final residual = 1.1048262e-08, No Iterations 2
DILUPBiCG:  Solving for h, Initial residual = 1.0687873e-06, Final residual = 2.4494368e-07, No Iterations 1
GAMG:  Solving for p_rgh, Initial residual = 1.6443318e-06, Final residual = 1.5723618e-07, No Iterations 1
time step continuity errors : sum local = 3.7035563e-06, global = -2.1919663e-07, cumulative = 0.00034082185
ExecutionTime = 20.28 s  ClockTime = 21 s
Inflow      : 5.0127888e-05 [kg/s]
Outflow     : 5.0127705e-05 [kg/s]
EnergyInflow  : 14.810896 [W]
EnergyOutflow : 15.419153 [W]
EnergyBalance : 0.60825667 [W]
rho max/avg/min : 1.2016458 1.0519647 0.74665176
T   max/avg/min : 472.59279 345.04713 293.68596
P   max/avg/min : 101324.91 101316.15 101307.4
Prg max/avg/min : 101325 101323.82 101318.34
U   max/avg/min : 1.467316 0.40251044 0
Prg max-min : 6.6568182
 
Iteration Number = 517

DILUPBiCG:  Solving for Ux, Initial residual = 1.2679287e-05, Final residual = 2.7731387e-07, No Iterations 1
DILUPBiCG:  Solving for Uy, Initial residual = 0.018984036, Final residual = 3.2787375e-06, No Iterations 3
DILUPBiCG:  Solving for Uz, Initial residual = 9.615949e-06, Final residual = 1.1063559e-08, No Iterations 2
DILUPBiCG:  Solving for h, Initial residual = 1.0554989e-06, Final residual = 2.4196462e-07, No Iterations 1
GAMG:  Solving for p_rgh, Initial residual = 1.6266825e-06, Final residual = 1.5691951e-07, No Iterations 1
time step continuity errors : sum local = 3.6980042e-06, global = -2.0349961e-07, cumulative = 0.00034061835
ExecutionTime = 20.32 s  ClockTime = 21 s
Inflow      : 5.0131709e-05 [kg/s]
Outflow     : 5.013154e-05 [kg/s]
EnergyInflow  : 14.812025 [W]
EnergyOutflow : 15.420285 [W]
EnergyBalance : 0.60826034 [W]
rho max/avg/min : 1.2016458 1.0519651 0.74665258
T   max/avg/min : 472.59227 345.04696 293.68596
P   max/avg/min : 101324.91 101316.15 101307.4
Prg max/avg/min : 101325 101323.82 101318.34
U   max/avg/min : 1.4673304 0.40251659 0
Prg max-min : 6.6568066
 
Iteration Number = 518

DILUPBiCG:  Solving for Ux, Initial residual = 1.2591331e-05, Final residual = 2.7720663e-07, No Iterations 1
DILUPBiCG:  Solving for Uy, Initial residual = 0.018390233, Final residual = 1.6346692e-06, No Iterations 3
DILUPBiCG:  Solving for Uz, Initial residual = 9.5478158e-06, Final residual = 1.1092459e-08, No Iterations 2
DILUPBiCG:  Solving for h, Initial residual = 1.0423342e-06, Final residual = 2.389408e-07, No Iterations 1
GAMG:  Solving for p_rgh, Initial residual = 1.608256e-06, Final residual = 1.5634393e-07, No Iterations 1
time step continuity errors : sum local = 3.6822065e-06, global = -1.9171959e-07, cumulative = 0.00034042663
ExecutionTime = 20.36 s  ClockTime = 21 s
Inflow      : 5.0135526e-05 [kg/s]
Outflow     : 5.0135366e-05 [kg/s]
EnergyInflow  : 14.813153 [W]
EnergyOutflow : 15.421416 [W]
EnergyBalance : 0.60826303 [W]
rho max/avg/min : 1.2016458 1.0519655 0.74665339
T   max/avg/min : 472.59176 345.0468 293.68596
P   max/avg/min : 101324.91 101316.15 101307.4
Prg max/avg/min : 101325 101323.82 101318.34
U   max/avg/min : 1.4673446 0.40252268 0
Prg max-min : 6.6567952
 
Iteration Number = 519

DILUPBiCG:  Solving for Ux, Initial residual = 1.2487444e-05, Final residual = 2.7795356e-07, No Iterations 1
DILUPBiCG:  Solving for Uy, Initial residual = 0.018854118, Final residual = 7.3214489e-06, No Iterations 3
DILUPBiCG:  Solving for Uz, Initial residual = 9.4811069e-06, Final residual = 1.1129626e-08, No Iterations 2
DILUPBiCG:  Solving for h, Initial residual = 1.0293007e-06, Final residual = 2.3595443e-07, No Iterations 1
GAMG:  Solving for p_rgh, Initial residual = 1.5908442e-06, Final residual = 1.5525011e-07, No Iterations 1
time step continuity errors : sum local = 3.6573724e-06, global = -1.8419779e-07, cumulative = 0.00034024243
ExecutionTime = 20.39 s  ClockTime = 21 s
Inflow      : 5.0139338e-05 [kg/s]
Outflow     : 5.0139185e-05 [kg/s]
EnergyInflow  : 14.814279 [W]
EnergyOutflow : 15.422544 [W]
EnergyBalance : 0.60826468 [W]
rho max/avg/min : 1.2016458 1.0519659 0.74665419
T   max/avg/min : 472.59125 345.04663 293.68595
P   max/avg/min : 101324.91 101316.15 101307.4
Prg max/avg/min : 101325 101323.82 101318.34
U   max/avg/min : 1.4673586 0.40252873 0
Prg max-min : 6.656784
 
Iteration Number = 520

DILUPBiCG:  Solving for Ux, Initial residual = 1.2406079e-05, Final residual = 2.776762e-07, No Iterations 1
DILUPBiCG:  Solving for Uy, Initial residual = 0.019230573, Final residual = 1.0423863e-06, No Iterations 3
DILUPBiCG:  Solving for Uz, Initial residual = 9.4154733e-06, Final residual = 1.1175076e-08, No Iterations 2
DILUPBiCG:  Solving for h, Initial residual = 1.016416e-06, Final residual = 2.3309017e-07, No Iterations 1
GAMG:  Solving for p_rgh, Initial residual = 1.573015e-06, Final residual = 1.5433506e-07, No Iterations 1
time step continuity errors : sum local = 3.6363316e-06, global = -1.8049112e-07, cumulative = 0.00034006194
ExecutionTime = 20.43 s  ClockTime = 21 s
Inflow      : 5.0143147e-05 [kg/s]
Outflow     : 5.0142996e-05 [kg/s]
EnergyInflow  : 14.815405 [W]
EnergyOutflow : 15.42367 [W]
EnergyBalance : 0.60826539 [W]
rho max/avg/min : 1.2016458 1.0519663 0.74665498
T   max/avg/min : 472.59075 345.04647 293.68595
P   max/avg/min : 101324.91 101316.15 101307.4
Prg max/avg/min : 101325 101323.82 101318.34
U   max/avg/min : 1.4673724 0.40253473 0
Prg max-min : 6.6567729
 
Iteration Number = 521

DILUPBiCG:  Solving for Ux, Initial residual = 1.233993e-05, Final residual = 2.7397266e-07, No Iterations 1
DILUPBiCG:  Solving for Uy, Initial residual = 0.018910832, Final residual = 9.7820233e-07, No Iterations 3
DILUPBiCG:  Solving for Uz, Initial residual = 9.3510983e-06, Final residual = 1.1231525e-08, No Iterations 2
DILUPBiCG:  Solving for h, Initial residual = 1.0038318e-06, Final residual = 2.3039294e-07, No Iterations 1
GAMG:  Solving for p_rgh, Initial residual = 1.5558274e-06, Final residual = 1.5353041e-07, No Iterations 1
time step continuity errors : sum local = 3.6170896e-06, global = -1.8106432e-07, cumulative = 0.00033988088
ExecutionTime = 20.46 s  ClockTime = 21 s
Inflow      : 5.0146952e-05 [kg/s]
Outflow     : 5.0146801e-05 [kg/s]
EnergyInflow  : 14.816529 [W]
EnergyOutflow : 15.424794 [W]
EnergyBalance : 0.60826506 [W]
rho max/avg/min : 1.2016458 1.0519667 0.74665576
T   max/avg/min : 472.59026 345.04631 293.68595
P   max/avg/min : 101324.91 101316.15 101307.4
Prg max/avg/min : 101325 101323.82 101318.34
U   max/avg/min : 1.467386 0.40254068 0
Prg max-min : 6.656762
 
Iteration Number = 522

DILUPBiCG:  Solving for Ux, Initial residual = 1.2269285e-05, Final residual = 2.7091071e-07, No Iterations 1
DILUPBiCG:  Solving for Uy, Initial residual = 0.020304606, Final residual = 9.5057815e-07, No Iterations 3
DILUPBiCG:  Solving for Uz, Initial residual = 9.2870409e-06, Final residual = 1.1293849e-08, No Iterations 2
DILUPBiCG:  Solving for h, Initial residual = 9.9144827e-07, Final residual = 9.9144827e-07, No Iterations 0
GAMG:  Solving for p_rgh, Initial residual = 3.2716148e-07, Final residual = 3.2716148e-07, No Iterations 0
time step continuity errors : sum local = 7.7038944e-06, global = 3.4376034e-06, cumulative = 0.00034331848
ExecutionTime = 20.49 s  ClockTime = 21 s
Inflow      : 5.0147731e-05 [kg/s]
Outflow     : 5.0150597e-05 [kg/s]
EnergyInflow  : 14.816759 [W]
EnergyOutflow : 15.425915 [W]
EnergyBalance : 0.60915658 [W]
rho max/avg/min : 1.2016458 1.0519667 0.74665576
T   max/avg/min : 472.59026 345.04631 293.68595
P   max/avg/min : 101324.91 101316.15 101307.4
Prg max/avg/min : 101325 101323.82 101318.34
U   max/avg/min : 1.4673995 0.40254658 0
Prg max-min : 6.656762
 

SIMPLE solution converged in 522 iterations

End

