/*---------------------------------------------------------------------------*\
| =========                 |                                                 |
| \\      /  F ield         | OpenFOAM: The Open Source CFD Toolbox           |
|  \\    /   O peration     | Version:  4.0                                   |
|   \\  /    A nd           | Web:      www.OpenFOAM.org                      |
|    \\/     M anipulation  |                                                 |
\*---------------------------------------------------------------------------*/
Build  : 4.0-665f1db4c1f1
Exec   : pupoBuoyantSimpleFoam
Date   : Aug 22 2016
Time   : 00:21:37
Host   : "SC500"
PID    : 5531
Case   : /home/pedro/Documents/ThesisProject/OpenFoam/validation1rod/NoRad
nProcs : 1
sigFpe : Enabling floating point exception trapping (FOAM_SIGFPE).
fileModificationChecking : Monitoring run-time modified files using timeStampMaster
allowSystemOperations : Allowing user-supplied system call operations

// * * * * * * * * * * * * * * * * * * * * * * * * * * * * * * * * * * * * * //
Create time

Create mesh for time = 0


SIMPLE: convergence criteria
    field p_rgh	 tolerance 1e-06
    field Uz	 tolerance 1e-06
    field h	 tolerance 1e-06

Reading thermophysical properties

Selecting thermodynamics package 
{
    type            heRhoThermo;
    mixture         pureMixture;
    transport       sutherland;
    thermo          hConst;
    equationOfState perfectGas;
    specie          specie;
    energy          sensibleEnthalpy;
}


Reading g

Reading hRef
Calculating field g.h

Selecting turbulence model type laminar
No MRF models present

Selecting radiationModel none
 
rho max/avg/min : 1.2016452 1.2015414 1.2014377
T   max/avg/min : 293.7 293.7 293.7
P   max/avg/min : 101324.91 101316.16 101307.41
Prg max/avg/min : 101325 101325 101325
U   max/avg/min : 0 0 0
 
No finite volume options present


Starting Iteration loop

Iteration Number = 1

DILUPBiCG:  Solving for Ux, Initial residual = 0.009764874, Final residual = 1.3546237e-06, No Iterations 2
DILUPBiCG:  Solving for Uy, Initial residual = 4.8698736e-07, Final residual = 7.7482914e-11, No Iterations 2
DILUPBiCG:  Solving for Uz, Initial residual = 1, Final residual = 0.00034325924, No Iterations 2
DILUPBiCG:  Solving for h, Initial residual = 1, Final residual = 0.0004600181, No Iterations 1
GAMG:  Solving for p_rgh, Initial residual = 0.27181604, Final residual = 8.1501066e-05, No Iterations 5
time step continuity errors : sum local = 7.4096743e-06, global = -2.9358035e-06, cumulative = -2.9358035e-06
ExecutionTime = 0.1 s  ClockTime = 0 s
Inflow      : -2.6103207e-07 [kg/s]
Outflow     : -2.6348053e-07 [kg/s]
EnergyInflow  : -0.077125111 [W]
EnergyOutflow : -0.077848538 [W]
rho max/avg/min : 1.2016452 1.2010688 1.193069
T   max/avg/min : 295.76012 293.81602 293.7
P   max/avg/min : 101324.91 101316.16 101307.41
Prg max/avg/min : 101325 101325 101324.88
U   max/avg/min : 7.73489e-06 -9.3705606e-05 -0.00086524767
Prg max-min : 0.12312598
 
Iteration Number = 2

DILUPBiCG:  Solving for Ux, Initial residual = 0.3055706, Final residual = 0.00011023117, No Iterations 2
DILUPBiCG:  Solving for Uy, Initial residual = 9.7406041e-05, Final residual = 2.6348626e-08, No Iterations 2
DILUPBiCG:  Solving for Uz, Initial residual = 0.38951465, Final residual = 4.3033354e-05, No Iterations 2
DILUPBiCG:  Solving for h, Initial residual = 0.25462311, Final residual = 7.6685261e-05, No Iterations 1
GAMG:  Solving for p_rgh, Initial residual = 0.029416551, Final residual = 2.2121931e-05, No Iterations 5
time step continuity errors : sum local = 1.0415158e-05, global = 3.5324428e-06, cumulative = 5.9663938e-07
ExecutionTime = 0.13 s  ClockTime = 0 s
Inflow      : -3.7480873e-07 [kg/s]
Outflow     : -3.7186268e-07 [kg/s]
EnergyInflow  : -0.11074181 [W]
EnergyOutflow : -0.10987137 [W]
rho max/avg/min : 1.2016452 1.2006185 1.1885755
T   max/avg/min : 296.87879 293.92707 293.7
P   max/avg/min : 101324.91 101316.16 101307.41
Prg max/avg/min : 101325 101324.99 101324.81
U   max/avg/min : 2.5336537e-05 -0.00013976002 -0.00088207382
Prg max-min : 0.19025123
 
Iteration Number = 3

DILUPBiCG:  Solving for Ux, Initial residual = 0.41795566, Final residual = 0.00016967217, No Iterations 2
DILUPBiCG:  Solving for Uy, Initial residual = 0.00010769817, Final residual = 3.8853128e-08, No Iterations 2
DILUPBiCG:  Solving for Uz, Initial residual = 0.18642868, Final residual = 2.1600261e-05, No Iterations 2
DILUPBiCG:  Solving for h, Initial residual = 0.1575492, Final residual = 4.9294167e-05, No Iterations 1
GAMG:  Solving for p_rgh, Initial residual = 0.010984051, Final residual = 3.0341602e-06, No Iterations 5
time step continuity errors : sum local = 2.8648584e-06, global = -1.0418598e-06, cumulative = -4.4522039e-07
ExecutionTime = 0.16 s  ClockTime = 0 s
Inflow      : -2.9678821e-07 [kg/s]
Outflow     : -2.9765712e-07 [kg/s]
EnergyInflow  : -0.087689697 [W]
EnergyOutflow : -0.087946421 [W]
rho max/avg/min : 1.2016452 1.2001838 1.1854816
T   max/avg/min : 297.65358 294.03451 293.70001
P   max/avg/min : 101324.91 101316.16 101307.41
Prg max/avg/min : 101325 101324.99 101324.76
U   max/avg/min : 5.0451284e-05 -0.0001045678 -0.00067881991
Prg max-min : 0.23510937
 
Iteration Number = 4

DILUPBiCG:  Solving for Ux, Initial residual = 0.34455489, Final residual = 0.00011931655, No Iterations 2
DILUPBiCG:  Solving for Uy, Initial residual = 7.11886e-05, Final residual = 2.313789e-08, No Iterations 2
DILUPBiCG:  Solving for Uz, Initial residual = 0.043093366, Final residual = 3.9045152e-06, No Iterations 2
DILUPBiCG:  Solving for h, Initial residual = 0.11424914, Final residual = 4.6198236e-05, No Iterations 1
GAMG:  Solving for p_rgh, Initial residual = 0.0072666635, Final residual = 6.8929594e-06, No Iterations 4
time step continuity errors : sum local = 8.9537736e-06, global = 6.4726557e-07, cumulative = 2.0204518e-07
ExecutionTime = 0.2 s  ClockTime = 0 s
Inflow      : -2.4160185e-07 [kg/s]
Outflow     : -2.4106204e-07 [kg/s]
EnergyInflow  : -0.071384216 [W]
EnergyOutflow : -0.071224702 [W]
rho max/avg/min : 1.2016452 1.1997522 1.1829312
T   max/avg/min : 298.29514 294.14141 293.70002
P   max/avg/min : 101324.91 101316.16 101307.41
Prg max/avg/min : 101325 101324.99 101324.73
U   max/avg/min : 8.4110926e-05 -7.7189642e-05 -0.00052136632
Prg max-min : 0.27273674
 
Iteration Number = 5

DILUPBiCG:  Solving for Ux, Initial residual = 0.36919063, Final residual = 0.00012835243, No Iterations 2
DILUPBiCG:  Solving for Uy, Initial residual = 5.8115948e-05, Final residual = 1.4007968e-08, No Iterations 2
DILUPBiCG:  Solving for Uz, Initial residual = 0.1864933, Final residual = 1.944822e-05, No Iterations 2
DILUPBiCG:  Solving for h, Initial residual = 0.090486609, Final residual = 4.6048677e-05, No Iterations 1
GAMG:  Solving for p_rgh, Initial residual = 0.0051369398, Final residual = 5.0830019e-06, No Iterations 4
time step continuity errors : sum local = 8.6784107e-06, global = -6.6574017e-07, cumulative = -4.6369499e-07
ExecutionTime = 0.24 s  ClockTime = 0 s
Inflow      : -1.9659719e-07 [kg/s]
Outflow     : -1.9715242e-07 [kg/s]
EnergyInflow  : -0.058087039 [W]
EnergyOutflow : -0.058251046 [W]
rho max/avg/min : 1.2016451 1.1993209 1.1807011
T   max/avg/min : 298.85839 294.24845 293.70002
P   max/avg/min : 101324.91 101316.16 101307.41
Prg max/avg/min : 101325 101324.98 101324.69
U   max/avg/min : 0.00012515815 -4.7374985e-05 -0.00040426447
Prg max-min : 0.30509965
 
Iteration Number = 6

DILUPBiCG:  Solving for Ux, Initial residual = 0.30824548, Final residual = 8.8037741e-05, No Iterations 2
DILUPBiCG:  Solving for Uy, Initial residual = 4.9565838e-05, Final residual = 1.2176352e-08, No Iterations 2
DILUPBiCG:  Solving for Uz, Initial residual = 0.083274415, Final residual = 3.3474317e-06, No Iterations 2
DILUPBiCG:  Solving for h, Initial residual = 0.075296642, Final residual = 4.872686e-05, No Iterations 1
GAMG:  Solving for p_rgh, Initial residual = 0.0042926014, Final residual = 1.8780602e-06, No Iterations 5
time step continuity errors : sum local = 3.9363265e-06, global = 1.137408e-06, cumulative = 6.7371304e-07
ExecutionTime = 0.27 s  ClockTime = 0 s
Inflow      : -1.638633e-07 [kg/s]
Outflow     : -1.629147e-07 [kg/s]
EnergyInflow  : -0.048415411 [W]
EnergyOutflow : -0.048135054 [W]
rho max/avg/min : 1.2016451 1.1988891 1.1786983
T   max/avg/min : 299.36606 294.35574 293.70003
P   max/avg/min : 101324.91 101316.16 101307.41
Prg max/avg/min : 101325 101324.98 101324.67
U   max/avg/min : 0.00017515644 -1.8583306e-05 -0.0003346412
Prg max-min : 0.33460843
 
Iteration Number = 7

DILUPBiCG:  Solving for Ux, Initial residual = 0.3228166, Final residual = 8.4582991e-05, No Iterations 2
DILUPBiCG:  Solving for Uy, Initial residual = 4.3957198e-05, Final residual = 1.1036082e-08, No Iterations 2
DILUPBiCG:  Solving for Uz, Initial residual = 0.18292511, Final residual = 1.2328691e-05, No Iterations 2
DILUPBiCG:  Solving for h, Initial residual = 0.064691346, Final residual = 5.1948421e-05, No Iterations 1
GAMG:  Solving for p_rgh, Initial residual = 0.0035846036, Final residual = 2.4425228e-06, No Iterations 3
time step continuity errors : sum local = 6.0938213e-06, global = -1.3905844e-06, cumulative = -7.1687141e-07
ExecutionTime = 0.31 s  ClockTime = 0 s
Inflow      : -1.3438996e-07 [kg/s]
Outflow     : -1.355497e-07 [kg/s]
EnergyInflow  : -0.039707152 [W]
EnergyOutflow : -0.040049664 [W]
rho max/avg/min : 1.2016451 1.1984568 1.1768681
T   max/avg/min : 299.83159 294.46331 293.70003
P   max/avg/min : 101324.91 101316.16 101307.41
Prg max/avg/min : 101325 101324.98 101324.64
U   max/avg/min : 0.00023409094 1.6226858e-05 -0.00028430211
Prg max-min : 0.36122195
 
Iteration Number = 8

DILUPBiCG:  Solving for Ux, Initial residual = 0.26818318, Final residual = 6.786357e-05, No Iterations 2
DILUPBiCG:  Solving for Uy, Initial residual = 3.4137792e-05, Final residual = 7.5039686e-09, No Iterations 2
DILUPBiCG:  Solving for Uz, Initial residual = 0.11659527, Final residual = 2.8369333e-06, No Iterations 2
DILUPBiCG:  Solving for h, Initial residual = 0.056871659, Final residual = 5.6583673e-05, No Iterations 1
GAMG:  Solving for p_rgh, Initial residual = 0.0032125107, Final residual = 7.9330362e-07, No Iterations 4
time step continuity errors : sum local = 2.2936604e-06, global = 1.196066e-06, cumulative = 4.7919459e-07
ExecutionTime = 0.34 s  ClockTime = 0 s
Inflow      : -1.1441832e-07 [kg/s]
Outflow     : -1.134208e-07 [kg/s]
EnergyInflow  : -0.033806287 [W]
EnergyOutflow : -0.033511305 [W]
rho max/avg/min : 1.2016451 1.1980241 1.1751746
T   max/avg/min : 300.26368 294.57114 293.70003
P   max/avg/min : 101324.91 101316.16 101307.41
Prg max/avg/min : 101325 101324.97 101324.61
U   max/avg/min : 0.00030230955 5.5115284e-05 -0.0002455509
Prg max-min : 0.38613396
 
Iteration Number = 9

DILUPBiCG:  Solving for Ux, Initial residual = 0.25607841, Final residual = 6.1723686e-05, No Iterations 2
DILUPBiCG:  Solving for Uy, Initial residual = 3.6199572e-05, Final residual = 8.1128264e-09, No Iterations 2
DILUPBiCG:  Solving for Uz, Initial residual = 0.17057128, Final residual = 7.2895044e-06, No Iterations 2
DILUPBiCG:  Solving for h, Initial residual = 0.050849265, Final residual = 9.7807031e-06, No Iterations 2
GAMG:  Solving for p_rgh, Initial residual = 0.0029224041, Final residual = 9.7039444e-07, No Iterations 4
time step continuity errors : sum local = 3.1968158e-06, global = -4.9895397e-07, cumulative = -1.975938e-08
ExecutionTime = 0.38 s  ClockTime = 0 s
Inflow      : -9.5168229e-08 [kg/s]
Outflow     : -9.5584357e-08 [kg/s]
EnergyInflow  : -0.028118614 [W]
EnergyOutflow : -0.028241155 [W]
rho max/avg/min : 1.201645 1.1975905 1.1735936
T   max/avg/min : 300.66818 294.67931 293.70003
P   max/avg/min : 101324.91 101316.16 101307.41
Prg max/avg/min : 101325 101324.97 101324.59
U   max/avg/min : 0.00038342973 0.00010321802 -0.00021455122
Prg max-min : 0.40915908
 
Iteration Number = 10

DILUPBiCG:  Solving for Ux, Initial residual = 0.21253598, Final residual = 4.5311091e-05, No Iterations 2
DILUPBiCG:  Solving for Uy, Initial residual = 3.8130277e-05, Final residual = 8.155184e-09, No Iterations 2
DILUPBiCG:  Solving for Uz, Initial residual = 0.13468734, Final residual = 2.8003921e-06, No Iterations 2
DILUPBiCG:  Solving for h, Initial residual = 0.046054082, Final residual = 1.4852728e-05, No Iterations 2
GAMG:  Solving for p_rgh, Initial residual = 0.0028843338, Final residual = 1.9907105e-06, No Iterations 4
time step continuity errors : sum local = 7.3530769e-06, global = 1.690789e-06, cumulative = 1.6710296e-06
ExecutionTime = 0.41 s  ClockTime = 0 s
Inflow      : -8.250998e-08 [kg/s]
Outflow     : -8.1099863e-08 [kg/s]
EnergyInflow  : -0.02437858 [W]
EnergyOutflow : -0.023961307 [W]
rho max/avg/min : 1.201645 1.1971566 1.1721065
T   max/avg/min : 301.04965 294.78769 293.70003
P   max/avg/min : 101324.91 101316.16 101307.41
Prg max/avg/min : 101325 101324.97 101324.57
U   max/avg/min : 0.00047735711 0.00015962965 -0.00019358315
Prg max-min : 0.43099372
 
Iteration Number = 11

DILUPBiCG:  Solving for Ux, Initial residual = 0.19199395, Final residual = 3.720774e-05, No Iterations 2
DILUPBiCG:  Solving for Uy, Initial residual = 4.0065417e-05, Final residual = 7.6089513e-09, No Iterations 2
DILUPBiCG:  Solving for Uz, Initial residual = 0.15225497, Final residual = 5.0789154e-06, No Iterations 2
DILUPBiCG:  Solving for h, Initial residual = 0.042155424, Final residual = 9.7403602e-06, No Iterations 2
GAMG:  Solving for p_rgh, Initial residual = 0.0028313743, Final residual = 5.9196032e-07, No Iterations 5
time step continuity errors : sum local = 2.4284401e-06, global = 6.7157196e-07, cumulative = 2.3426016e-06
ExecutionTime = 0.45 s  ClockTime = 0 s
Inflow      : -7.0051522e-08 [kg/s]
Outflow     : -6.9491432e-08 [kg/s]
EnergyInflow  : -0.020697577 [W]
EnergyOutflow : -0.020531126 [W]
rho max/avg/min : 1.201645 1.1967223 1.1706998
T   max/avg/min : 301.41139 294.89626 293.70004
P   max/avg/min : 101324.91 101316.16 101307.41
Prg max/avg/min : 101325 101324.96 101324.55
U   max/avg/min : 0.00058704255 0.00022992301 -0.00017939963
Prg max-min : 0.45151758
 
Iteration Number = 12

DILUPBiCG:  Solving for Ux, Initial residual = 0.16226725, Final residual = 2.6840397e-05, No Iterations 2
DILUPBiCG:  Solving for Uy, Initial residual = 4.7403217e-05, Final residual = 6.982729e-09, No Iterations 2
DILUPBiCG:  Solving for Uz, Initial residual = 0.13848262, Final residual = 3.0380024e-06, No Iterations 2
DILUPBiCG:  Solving for h, Initial residual = 0.038918031, Final residual = 1.0035555e-05, No Iterations 2
GAMG:  Solving for p_rgh, Initial residual = 0.0028665516, Final residual = 8.1499686e-07, No Iterations 4
time step continuity errors : sum local = 3.6779523e-06, global = 1.1954981e-06, cumulative = 3.5380997e-06
ExecutionTime = 0.48 s  ClockTime = 0 s
Inflow      : -6.1190265e-08 [kg/s]
Outflow     : -6.019322e-08 [kg/s]
EnergyInflow  : -0.01807941 [W]
EnergyOutflow : -0.017783395 [W]
rho max/avg/min : 1.201645 1.196288 1.1693629
T   max/avg/min : 301.75598 295.00498 293.70004
P   max/avg/min : 101324.91 101316.16 101307.41
Prg max/avg/min : 101325 101324.96 101324.53
U   max/avg/min : 0.00071710896 0.00031394866 -0.00017392884
Prg max-min : 0.47110617
 
Iteration Number = 13

DILUPBiCG:  Solving for Ux, Initial residual = 0.13954947, Final residual = 1.9727749e-05, No Iterations 2
DILUPBiCG:  Solving for Uy, Initial residual = 5.8772867e-05, Final residual = 5.4156851e-09, No Iterations 2
DILUPBiCG:  Solving for Uz, Initial residual = 0.14357011, Final residual = 3.8461126e-06, No Iterations 2
DILUPBiCG:  Solving for h, Initial residual = 0.036167186, Final residual = 9.0503318e-06, No Iterations 2
GAMG:  Solving for p_rgh, Initial residual = 0.0029588875, Final residual = 2.565895e-06, No Iterations 4
time step continuity errors : sum local = 1.2577285e-05, global = 4.7335137e-06, cumulative = 8.2716134e-06
ExecutionTime = 0.52 s  ClockTime = 0 s
Inflow      : -5.7004478e-08 [kg/s]
Outflow     : -5.3056731e-08 [kg/s]
EnergyInflow  : -0.016842669 [W]
EnergyOutflow : -0.015674188 [W]
rho max/avg/min : 1.201645 1.1958536 1.1680875
T   max/avg/min : 302.08545 295.1138 293.70005
P   max/avg/min : 101324.91 101316.16 101307.41
Prg max/avg/min : 101325 101324.96 101324.51
U   max/avg/min : 0.00087080844 0.0004142089 -0.00018923957
Prg max-min : 0.48970622
 
Iteration Number = 14

DILUPBiCG:  Solving for Ux, Initial residual = 0.11623458, Final residual = 1.7663518e-05, No Iterations 2
DILUPBiCG:  Solving for Uy, Initial residual = 7.6193695e-05, Final residual = 5.1309359e-09, No Iterations 2
DILUPBiCG:  Solving for Uz, Initial residual = 0.14217675, Final residual = 5.0233261e-06, No Iterations 2
DILUPBiCG:  Solving for h, Initial residual = 0.03383004, Final residual = 6.3618627e-06, No Iterations 2
GAMG:  Solving for p_rgh, Initial residual = 0.0029673522, Final residual = 1.5982663e-06, No Iterations 4
time step continuity errors : sum local = 8.4461591e-06, global = 3.2888562e-06, cumulative = 1.156047e-05
ExecutionTime = 0.55 s  ClockTime = 1 s
Inflow      : -5.1197596e-08 [kg/s]
Outflow     : -4.8454692e-08 [kg/s]
EnergyInflow  : -0.015126954 [W]
EnergyOutflow : -0.014313575 [W]
rho max/avg/min : 1.2016449 1.1954194 1.1668669
T   max/avg/min : 302.40145 295.22271 293.70007
P   max/avg/min : 101324.91 101316.16 101307.41
Prg max/avg/min : 101325 101324.95 101324.49
U   max/avg/min : 0.0010543556 0.00053488278 -0.0002063061
Prg max-min : 0.50759138
 
Iteration Number = 15

DILUPBiCG:  Solving for Ux, Initial residual = 0.11367356, Final residual = 1.7801671e-05, No Iterations 2
DILUPBiCG:  Solving for Uy, Initial residual = 9.4487566e-05, Final residual = 6.2035216e-09, No Iterations 2
DILUPBiCG:  Solving for Uz, Initial residual = 0.14275823, Final residual = 3.2804895e-06, No Iterations 2
DILUPBiCG:  Solving for h, Initial residual = 0.031783414, Final residual = 9.469181e-06, No Iterations 2
GAMG:  Solving for p_rgh, Initial residual = 0.0032415237, Final residual = 5.3247886e-07, No Iterations 5
time step continuity errors : sum local = 3.0360872e-06, global = 3.3833867e-07, cumulative = 1.1898808e-05
ExecutionTime = 0.59 s  ClockTime = 1 s
Inflow      : -4.6516113e-08 [kg/s]
Outflow     : -4.6233939e-08 [kg/s]
EnergyInflow  : -0.013743753 [W]
EnergyOutflow : -0.013656217 [W]
rho max/avg/min : 1.2016447 1.1949853 1.1656954
T   max/avg/min : 302.70537 295.33166 293.7001
P   max/avg/min : 101324.91 101316.16 101307.41
Prg max/avg/min : 101325 101324.95 101324.48
U   max/avg/min : 0.0012718708 0.00067711075 -0.00025654617
Prg max-min : 0.52464637
 
Iteration Number = 16

DILUPBiCG:  Solving for Ux, Initial residual = 0.10516073, Final residual = 2.0466047e-05, No Iterations 2
DILUPBiCG:  Solving for Uy, Initial residual = 0.00013323494, Final residual = 8.0408396e-09, No Iterations 2
DILUPBiCG:  Solving for Uz, Initial residual = 0.14217875, Final residual = 6.8754406e-06, No Iterations 2
DILUPBiCG:  Solving for h, Initial residual = 0.029990171, Final residual = 1.7742845e-05, No Iterations 2
GAMG:  Solving for p_rgh, Initial residual = 0.0034683435, Final residual = 2.7524862e-06, No Iterations 4
time step continuity errors : sum local = 1.6709124e-05, global = 7.6453281e-06, cumulative = 1.9544136e-05
ExecutionTime = 0.62 s  ClockTime = 1 s
Inflow      : -5.3100446e-08 [kg/s]
Outflow     : -4.6724247e-08 [kg/s]
EnergyInflow  : -0.015689175 [W]
EnergyOutflow : -0.01379944 [W]
rho max/avg/min : 1.2016445 1.1945518 1.1645681
T   max/avg/min : 302.99836 295.44058 293.70014
P   max/avg/min : 101324.91 101316.16 101307.41
Prg max/avg/min : 101325 101324.95 101324.46
U   max/avg/min : 0.0015302578 0.00084244569 -0.000348687
Prg max-min : 0.54112276
 
Iteration Number = 17

DILUPBiCG:  Solving for Ux, Initial residual = 0.10259591, Final residual = 2.0100042e-05, No Iterations 2
DILUPBiCG:  Solving for Uy, Initial residual = 0.00016351159, Final residual = 1.2044244e-08, No Iterations 2
DILUPBiCG:  Solving for Uz, Initial residual = 0.13933856, Final residual = 6.1288577e-06, No Iterations 2
DILUPBiCG:  Solving for h, Initial residual = 0.028412436, Final residual = 1.4835883e-05, No Iterations 2
GAMG:  Solving for p_rgh, Initial residual = 0.0036806701, Final residual = 3.4952947e-06, No Iterations 4
time step continuity errors : sum local = 2.2496798e-05, global = 5.801742e-06, cumulative = 2.5345878e-05
ExecutionTime = 0.66 s  ClockTime = 1 s
Inflow      : -5.6817176e-08 [kg/s]
Outflow     : -5.1978526e-08 [kg/s]
EnergyInflow  : -0.016787328 [W]
EnergyOutflow : -0.015349687 [W]
rho max/avg/min : 1.2016442 1.1941187 1.1634814
T   max/avg/min : 303.28137 295.5495 293.7002
P   max/avg/min : 101324.91 101316.16 101307.41
Prg max/avg/min : 101325 101324.94 101324.44
U   max/avg/min : 0.0018362235 0.0010335822 -0.00046638384
Prg max-min : 0.55691568
 
Iteration Number = 18

DILUPBiCG:  Solving for Ux, Initial residual = 0.10084676, Final residual = 2.2547833e-05, No Iterations 2
DILUPBiCG:  Solving for Uy, Initial residual = 0.00021903667, Final residual = 1.4862755e-08, No Iterations 2
DILUPBiCG:  Solving for Uz, Initial residual = 0.13661866, Final residual = 8.8561608e-06, No Iterations 2
DILUPBiCG:  Solving for h, Initial residual = 0.026992587, Final residual = 1.0033747e-05, No Iterations 3
GAMG:  Solving for p_rgh, Initial residual = 0.0038331007, Final residual = 7.3079955e-07, No Iterations 5
time step continuity errors : sum local = 4.947181e-06, global = 9.5923889e-07, cumulative = 2.6305117e-05
ExecutionTime = 0.7 s  ClockTime = 1 s
Inflow      : -6.0371061e-08 [kg/s]
Outflow     : -5.9571056e-08 [kg/s]
EnergyInflow  : -0.017837367 [W]
EnergyOutflow : -0.017590021 [W]
rho max/avg/min : 1.2016435 1.1936858 1.1624317
T   max/avg/min : 303.55525 295.65844 293.70031
P   max/avg/min : 101324.91 101316.16 101307.41
Prg max/avg/min : 101325 101324.94 101324.43
U   max/avg/min : 0.002195777 0.0012555961 -0.00060267399
Prg max-min : 0.57224277
 
Iteration Number = 19

DILUPBiCG:  Solving for Ux, Initial residual = 0.10249651, Final residual = 2.3598068e-05, No Iterations 2
DILUPBiCG:  Solving for Uy, Initial residual = 0.00024990181, Final residual = 1.8378172e-08, No Iterations 2
DILUPBiCG:  Solving for Uz, Initial residual = 0.13158476, Final residual = 7.3333619e-06, No Iterations 2
DILUPBiCG:  Solving for h, Initial residual = 0.025711107, Final residual = 1.0111586e-05, No Iterations 3
GAMG:  Solving for p_rgh, Initial residual = 0.0042561739, Final residual = 1.1332287e-06, No Iterations 5
time step continuity errors : sum local = 8.1065983e-06, global = -1.0981453e-07, cumulative = 2.6195303e-05
ExecutionTime = 0.74 s  ClockTime = 1 s
Inflow      : -7.4989423e-08 [kg/s]
Outflow     : -7.5081008e-08 [kg/s]
EnergyInflow  : -0.02215654 [W]
EnergyOutflow : -0.022168712 [W]
rho max/avg/min : 1.2016426 1.1932535 1.161416
T   max/avg/min : 303.82071 295.76731 293.70045
P   max/avg/min : 101324.91 101316.16 101307.41
Prg max/avg/min : 101325 101324.94 101324.41
U   max/avg/min : 0.002619851 0.0015072985 -0.0007990441
Prg max-min : 0.58690497
 
Iteration Number = 20

DILUPBiCG:  Solving for Ux, Initial residual = 0.10847931, Final residual = 2.9083541e-05, No Iterations 2
DILUPBiCG:  Solving for Uy, Initial residual = 0.00032319472, Final residual = 3.0175416e-08, No Iterations 2
DILUPBiCG:  Solving for Uz, Initial residual = 0.12716453, Final residual = 1.0624428e-05, No Iterations 2
DILUPBiCG:  Solving for h, Initial residual = 0.024551696, Final residual = 1.2883828e-05, No Iterations 3
GAMG:  Solving for p_rgh, Initial residual = 0.0045478362, Final residual = 3.533351e-06, No Iterations 4
time step continuity errors : sum local = 2.6350757e-05, global = 1.2250009e-05, cumulative = 3.8445312e-05
ExecutionTime = 0.77 s  ClockTime = 1 s
Inflow      : -1.0379489e-07 [kg/s]
Outflow     : -9.3578394e-08 [kg/s]
EnergyInflow  : -0.030667468 [W]
EnergyOutflow : -0.02762879 [W]
rho max/avg/min : 1.2016413 1.1928221 1.1604318
T   max/avg/min : 304.07839 295.87607 293.70063
P   max/avg/min : 101324.91 101316.16 101307.41
Prg max/avg/min : 101325 101324.94 101324.4
U   max/avg/min : 0.0031131248 0.0017909115 -0.001052671
Prg max-min : 0.60122253
 
Iteration Number = 21

DILUPBiCG:  Solving for Ux, Initial residual = 0.088683577, Final residual = 2.4254957e-05, No Iterations 2
DILUPBiCG:  Solving for Uy, Initial residual = 0.00045027149, Final residual = 4.4789969e-08, No Iterations 2
DILUPBiCG:  Solving for Uz, Initial residual = 0.12020457, Final residual = 9.7944672e-06, No Iterations 2
DILUPBiCG:  Solving for h, Initial residual = 0.023491663, Final residual = 1.947742e-05, No Iterations 3
GAMG:  Solving for p_rgh, Initial residual = 0.004808978, Final residual = 4.6829658e-06, No Iterations 4
time step continuity errors : sum local = 3.6216101e-05, global = 8.6658163e-06, cumulative = 4.7111128e-05
ExecutionTime = 0.81 s  ClockTime = 1 s
Inflow      : -1.2220152e-07 [kg/s]
Outflow     : -1.1497423e-07 [kg/s]
EnergyInflow  : -0.036105929 [W]
EnergyOutflow : -0.033943554 [W]
rho max/avg/min : 1.2016393 1.1923916 1.1594767
T   max/avg/min : 304.32887 295.98465 293.70085
P   max/avg/min : 101324.91 101316.16 101307.41
Prg max/avg/min : 101325 101324.93 101324.39
U   max/avg/min : 0.003687391 0.0021103426 -0.0013417778
Prg max-min : 0.61496902
 
Iteration Number = 22

DILUPBiCG:  Solving for Ux, Initial residual = 0.094983044, Final residual = 2.9493567e-05, No Iterations 2
DILUPBiCG:  Solving for Uy, Initial residual = 0.00050144661, Final residual = 5.7540816e-08, No Iterations 2
DILUPBiCG:  Solving for Uz, Initial residual = 0.11403468, Final residual = 1.1208975e-05, No Iterations 2
DILUPBiCG:  Solving for h, Initial residual = 0.022518499, Final residual = 3.7541132e-06, No Iterations 4
GAMG:  Solving for p_rgh, Initial residual = 0.0053148163, Final residual = 4.7342618e-06, No Iterations 4
time step continuity errors : sum local = 3.7906449e-05, global = 1.991157e-05, cumulative = 6.7022699e-05
ExecutionTime = 0.85 s  ClockTime = 1 s
Inflow      : -1.6225996e-07 [kg/s]
Outflow     : -1.4565373e-07 [kg/s]
EnergyInflow  : -0.047941686 [W]
EnergyOutflow : -0.042999093 [W]
rho max/avg/min : 1.2016365 1.1919619 1.1585493
T   max/avg/min : 304.57248 296.09314 293.70114
P   max/avg/min : 101324.91 101316.16 101307.41
Prg max/avg/min : 101325 101324.93 101324.37
U   max/avg/min : 0.0043503768 0.0024662836 -0.001689475
Prg max-min : 0.62839756
 
Iteration Number = 23

DILUPBiCG:  Solving for Ux, Initial residual = 0.088041772, Final residual = 3.0222097e-05, No Iterations 2
DILUPBiCG:  Solving for Uy, Initial residual = 0.0005632761, Final residual = 8.3727326e-08, No Iterations 2
DILUPBiCG:  Solving for Uz, Initial residual = 0.10700918, Final residual = 1.0445939e-05, No Iterations 2
DILUPBiCG:  Solving for h, Initial residual = 0.021612721, Final residual = 4.9584528e-06, No Iterations 4
GAMG:  Solving for p_rgh, Initial residual = 0.0055018609, Final residual = 1.9676432e-06, No Iterations 5
time step continuity errors : sum local = 1.6223678e-05, global = 6.5653444e-06, cumulative = 7.3588043e-05
ExecutionTime = 0.88 s  ClockTime = 1 s
Inflow      : -1.824102e-07 [kg/s]
Outflow     : -1.769347e-07 [kg/s]
EnergyInflow  : -0.053895318 [W]
EnergyOutflow : -0.052229277 [W]
rho max/avg/min : 1.2016324 1.1915335 1.1576472
T   max/avg/min : 304.80982 296.20137 293.70151
P   max/avg/min : 101324.91 101316.16 101307.41
Prg max/avg/min : 101325 101324.93 101324.36
U   max/avg/min : 0.0051096427 0.0028632323 -0.0020720161
Prg max-min : 0.64132853
 
Iteration Number = 24

DILUPBiCG:  Solving for Ux, Initial residual = 0.089508413, Final residual = 3.470949e-05, No Iterations 2
DILUPBiCG:  Solving for Uy, Initial residual = 0.00072068465, Final residual = 1.2379054e-07, No Iterations 2
DILUPBiCG:  Solving for Uz, Initial residual = 0.10038247, Final residual = 1.0431965e-05, No Iterations 2
DILUPBiCG:  Solving for h, Initial residual = 0.020771148, Final residual = 8.789073e-06, No Iterations 4
GAMG:  Solving for p_rgh, Initial residual = 0.0059198657, Final residual = 4.762834e-06, No Iterations 4
time step continuity errors : sum local = 4.0477146e-05, global = 2.3585767e-05, cumulative = 9.717381e-05
ExecutionTime = 0.92 s  ClockTime = 1 s
Inflow      : -2.2698286e-07 [kg/s]
Outflow     : -2.0731234e-07 [kg/s]
EnergyInflow  : -0.067064855 [W]
EnergyOutflow : -0.061188577 [W]
rho max/avg/min : 1.2016284 1.1911065 1.1567691
T   max/avg/min : 305.0412 296.30934 293.70196
P   max/avg/min : 101324.91 101316.16 101307.41
Prg max/avg/min : 101325 101324.92 101324.35
U   max/avg/min : 0.005971134 0.0032967052 -0.0025221693
Prg max-min : 0.65393636
 
Iteration Number = 25

DILUPBiCG:  Solving for Ux, Initial residual = 0.089107765, Final residual = 3.8228613e-05, No Iterations 2
DILUPBiCG:  Solving for Uy, Initial residual = 0.00084398318, Final residual = 1.419444e-07, No Iterations 2
DILUPBiCG:  Solving for Uz, Initial residual = 0.094042908, Final residual = 1.0485859e-05, No Iterations 2
DILUPBiCG:  Solving for h, Initial residual = 0.019988809, Final residual = 1.0884805e-05, No Iterations 4
GAMG:  Solving for p_rgh, Initial residual = 0.0065309628, Final residual = 5.0795328e-06, No Iterations 4
time step continuity errors : sum local = 4.4183871e-05, global = 5.753184e-07, cumulative = 9.7749128e-05
ExecutionTime = 0.96 s  ClockTime = 1 s
Inflow      : -2.5241575e-07 [kg/s]
Outflow     : -2.5193593e-07 [kg/s]
EnergyInflow  : -0.074579312 [W]
EnergyOutflow : -0.074352462 [W]
rho max/avg/min : 1.2016249 1.1906808 1.1559134
T   max/avg/min : 305.26702 296.41703 293.70257
P   max/avg/min : 101324.91 101316.16 101307.41
Prg max/avg/min : 101325 101324.92 101324.33
U   max/avg/min : 0.0069416199 0.0037720644 -0.0030618194
Prg max-min : 0.66614254
 
Iteration Number = 26

DILUPBiCG:  Solving for Ux, Initial residual = 0.08468649, Final residual = 3.9306511e-05, No Iterations 2
DILUPBiCG:  Solving for Uy, Initial residual = 0.00090986219, Final residual = 1.9952633e-07, No Iterations 2
DILUPBiCG:  Solving for Uz, Initial residual = 0.087576844, Final residual = 9.3054292e-06, No Iterations 2
DILUPBiCG:  Solving for h, Initial residual = 0.019245591, Final residual = 1.1354276e-06, No Iterations 5
GAMG:  Solving for p_rgh, Initial residual = 0.0069425681, Final residual = 5.1906252e-06, No Iterations 4
time step continuity errors : sum local = 4.6383712e-05, global = 2.3995878e-05, cumulative = 0.00012174501
ExecutionTime = 0.99 s  ClockTime = 1 s
Inflow      : -3.0743397e-07 [kg/s]
Outflow     : -2.8742143e-07 [kg/s]
EnergyInflow  : -0.090835118 [W]
EnergyOutflow : -0.084809572 [W]
rho max/avg/min : 1.2016218 1.1902567 1.1550784
T   max/avg/min : 305.48769 296.52441 293.70339
P   max/avg/min : 101324.91 101316.16 101307.41
Prg max/avg/min : 101325 101324.92 101324.32
U   max/avg/min : 0.0080236458 0.0042890388 -0.0036570659
Prg max-min : 0.67829781
 
Iteration Number = 27

DILUPBiCG:  Solving for Ux, Initial residual = 0.081552383, Final residual = 4.0100815e-05, No Iterations 2
DILUPBiCG:  Solving for Uy, Initial residual = 0.0011350997, Final residual = 3.0890595e-07, No Iterations 2
DILUPBiCG:  Solving for Uz, Initial residual = 0.082273491, Final residual = 9.0707308e-06, No Iterations 2
DILUPBiCG:  Solving for h, Initial residual = 0.018547364, Final residual = 1.8035533e-06, No Iterations 5
GAMG:  Solving for p_rgh, Initial residual = 0.0074897768, Final residual = 5.1994676e-06, No Iterations 4
time step continuity errors : sum local = 4.7388851e-05, global = -4.9219133e-06, cumulative = 0.00011682309
ExecutionTime = 1.02 s  ClockTime = 1 s
Inflow      : -3.0679191e-07 [kg/s]
Outflow     : -3.1089679e-07 [kg/s]
EnergyInflow  : -0.090645413 [W]
EnergyOutflow : -0.091709447 [W]
rho max/avg/min : 1.2016186 1.1898345 1.1542632
T   max/avg/min : 305.70346 296.6314 293.7044
P   max/avg/min : 101324.91 101316.16 101307.41
Prg max/avg/min : 101325 101324.91 101324.31
U   max/avg/min : 0.0092356395 0.004859953 -0.004304098
Prg max-min : 0.69013825
 
Iteration Number = 28

DILUPBiCG:  Solving for Ux, Initial residual = 0.084952162, Final residual = 4.9710453e-05, No Iterations 2
DILUPBiCG:  Solving for Uy, Initial residual = 0.0012297111, Final residual = 3.8703001e-07, No Iterations 2
DILUPBiCG:  Solving for Uz, Initial residual = 0.076324191, Final residual = 7.7854843e-06, No Iterations 2
DILUPBiCG:  Solving for h, Initial residual = 0.017891433, Final residual = 1.9557201e-06, No Iterations 5
GAMG:  Solving for p_rgh, Initial residual = 0.0082648366, Final residual = 1.3212346e-06, No Iterations 5
time step continuity errors : sum local = 1.2425738e-05, global = -1.7131747e-06, cumulative = 0.00011510992
ExecutionTime = 1.06 s  ClockTime = 1 s
Inflow      : -3.4973217e-07 [kg/s]
Outflow     : -3.5116096e-07 [kg/s]
EnergyInflow  : -0.10333264 [W]
EnergyOutflow : -0.10356038 [W]
rho max/avg/min : 1.201616 1.1894143 1.1534666
T   max/avg/min : 305.91459 296.73794 293.70575
P   max/avg/min : 101324.91 101316.16 101307.41
Prg max/avg/min : 101325 101324.91 101324.3
U   max/avg/min : 0.010557635 0.0054670904 -0.0050554624
Prg max-min : 0.7016797
 
Iteration Number = 29

DILUPBiCG:  Solving for Ux, Initial residual = 0.081034328, Final residual = 4.966737e-05, No Iterations 2
DILUPBiCG:  Solving for Uy, Initial residual = 0.0013008073, Final residual = 4.5622242e-07, No Iterations 2
DILUPBiCG:  Solving for Uz, Initial residual = 0.072312021, Final residual = 8.5329742e-06, No Iterations 2
DILUPBiCG:  Solving for h, Initial residual = 0.017260916, Final residual = 8.8650899e-06, No Iterations 4
GAMG:  Solving for p_rgh, Initial residual = 0.0084840146, Final residual = 6.1056255e-06, No Iterations 4
time step continuity errors : sum local = 5.8788189e-05, global = -6.0084268e-06, cumulative = 0.00010910149
ExecutionTime = 1.1 s  ClockTime = 1 s
Inflow      : -3.6424502e-07 [kg/s]
Outflow     : -3.6925604e-07 [kg/s]
EnergyInflow  : -0.10762063 [W]
EnergyOutflow : -0.10884873 [W]
rho max/avg/min : 1.2016133 1.1889965 1.1526875
T   max/avg/min : 306.12135 296.84397 293.70753
P   max/avg/min : 101324.91 101316.16 101307.41
Prg max/avg/min : 101325 101324.91 101324.29
U   max/avg/min : 0.012013019 0.0061192771 -0.0059267192
Prg max-min : 0.71295973
 
Iteration Number = 30

DILUPBiCG:  Solving for Ux, Initial residual = 0.071384572, Final residual = 4.6688552e-05, No Iterations 2
DILUPBiCG:  Solving for Uy, Initial residual = 0.0015620684, Final residual = 7.9440045e-07, No Iterations 2
DILUPBiCG:  Solving for Uz, Initial residual = 0.06698762, Final residual = 7.7257633e-06, No Iterations 2
DILUPBiCG:  Solving for h, Initial residual = 0.016662726, Final residual = 6.75612e-06, No Iterations 4
GAMG:  Solving for p_rgh, Initial residual = 0.008673176, Final residual = 5.955219e-06, No Iterations 4
time step continuity errors : sum local = 5.9250449e-05, global = 3.2998402e-05, cumulative = 0.00014209989
ExecutionTime = 1.13 s  ClockTime = 1 s
Inflow      : -3.824707e-07 [kg/s]
Outflow     : -3.5495005e-07 [kg/s]
EnergyInflow  : -0.11300563 [W]
EnergyOutflow : -0.10454781 [W]
rho max/avg/min : 1.2016107 1.1885813 1.1519252
T   max/avg/min : 306.32392 296.94942 293.70844
P   max/avg/min : 101324.91 101316.16 101307.41
Prg max/avg/min : 101325 101324.91 101324.28
U   max/avg/min : 0.013580944 0.0068247285 -0.006866444
Prg max-min : 0.72395846
 
Iteration Number = 31

DILUPBiCG:  Solving for Ux, Initial residual = 0.072978165, Final residual = 5.0825401e-05, No Iterations 2
DILUPBiCG:  Solving for Uy, Initial residual = 0.001823666, Final residual = 1.4962521e-06, No Iterations 2
DILUPBiCG:  Solving for Uz, Initial residual = 0.063177025, Final residual = 7.9852661e-06, No Iterations 2
DILUPBiCG:  Solving for h, Initial residual = 0.01609874, Final residual = 7.1117474e-06, No Iterations 4
GAMG:  Solving for p_rgh, Initial residual = 0.0094984707, Final residual = 8.8326913e-06, No Iterations 4
time step continuity errors : sum local = 9.0498052e-05, global = -6.4417457e-06, cumulative = 0.00013565815
ExecutionTime = 1.17 s  ClockTime = 1 s
Inflow      : -3.5149065e-07 [kg/s]
Outflow     : -3.5686306e-07 [kg/s]
EnergyInflow  : -0.1038522 [W]
EnergyOutflow : -0.10502139 [W]
rho max/avg/min : 1.2016083 1.1881688 1.1511789
T   max/avg/min : 306.52253 297.05424 293.70903
P   max/avg/min : 101324.91 101316.16 101307.41
Prg max/avg/min : 101325 101324.9 101324.27
U   max/avg/min : 0.015277225 0.0075720854 -0.0079130399
Prg max-min : 0.73470272
 
Iteration Number = 32

DILUPBiCG:  Solving for Ux, Initial residual = 0.068711534, Final residual = 5.4409024e-05, No Iterations 2
DILUPBiCG:  Solving for Uy, Initial residual = 0.0019908066, Final residual = 1.1485908e-06, No Iterations 2
DILUPBiCG:  Solving for Uz, Initial residual = 0.059237151, Final residual = 8.1869575e-06, No Iterations 2
DILUPBiCG:  Solving for h, Initial residual = 0.015548879, Final residual = 6.9870596e-06, No Iterations 4
GAMG:  Solving for p_rgh, Initial residual = 0.0088219584, Final residual = 7.5134006e-06, No Iterations 4
time step continuity errors : sum local = 7.9953057e-05, global = 5.0175637e-05, cumulative = 0.00018583378
ExecutionTime = 1.2 s  ClockTime = 1 s
Inflow      : -3.5809379e-07 [kg/s]
Outflow     : -3.1624734e-07 [kg/s]
EnergyInflow  : -0.10580318 [W]
EnergyOutflow : -0.092910217 [W]
rho max/avg/min : 1.2016054 1.1877594 1.1504476
T   max/avg/min : 306.71737 297.15834 293.70974
P   max/avg/min : 101324.91 101316.16 101307.41
Prg max/avg/min : 101325 101324.9 101324.26
U   max/avg/min : 0.017095952 0.0083701117 -0.0089852947
Prg max-min : 0.74520084
 
Iteration Number = 33

DILUPBiCG:  Solving for Ux, Initial residual = 0.069444643, Final residual = 5.4872962e-05, No Iterations 2
DILUPBiCG:  Solving for Uy, Initial residual = 0.0020271286, Final residual = 4.025552e-08, No Iterations 3
DILUPBiCG:  Solving for Uz, Initial residual = 0.055744236, Final residual = 8.945036e-06, No Iterations 2
DILUPBiCG:  Solving for h, Initial residual = 0.015034459, Final residual = 4.9583025e-06, No Iterations 4
GAMG:  Solving for p_rgh, Initial residual = 0.0096943271, Final residual = 4.144433e-06, No Iterations 4
time step continuity errors : sum local = 4.545571e-05, global = -8.1401918e-06, cumulative = 0.00017769359
ExecutionTime = 1.24 s  ClockTime = 1 s
Inflow      : -2.2408029e-07 [kg/s]
Outflow     : -2.3086921e-07 [kg/s]
EnergyInflow  : -0.066207256 [W]
EnergyOutflow : -0.067544084 [W]
rho max/avg/min : 1.201603 1.1873533 1.1497306
T   max/avg/min : 306.90865 297.26172 293.71032
P   max/avg/min : 101324.91 101316.16 101307.41
Prg max/avg/min : 101325 101324.9 101324.25
U   max/avg/min : 0.019026721 0.0092296166 -0.010105905
Prg max-min : 0.75546363
 
Iteration Number = 34

DILUPBiCG:  Solving for Ux, Initial residual = 0.065241606, Final residual = 1.8654325e-06, No Iterations 3
DILUPBiCG:  Solving for Uy, Initial residual = 0.0020504419, Final residual = 1.901428e-06, No Iterations 2
DILUPBiCG:  Solving for Uz, Initial residual = 0.053064709, Final residual = 9.2555951e-06, No Iterations 2
DILUPBiCG:  Solving for h, Initial residual = 0.014534594, Final residual = 5.1109444e-06, No Iterations 4
GAMG:  Solving for p_rgh, Initial residual = 0.0083785702, Final residual = 4.5155149e-06, No Iterations 4
time step continuity errors : sum local = 5.2033825e-05, global = -1.332396e-05, cumulative = 0.00016436963
ExecutionTime = 1.28 s  ClockTime = 1 s
Inflow      : -1.4073026e-07 [kg/s]
Outflow     : -1.5184244e-07 [kg/s]
EnergyInflow  : -0.041580473 [W]
EnergyOutflow : -0.044033814 [W]
rho max/avg/min : 1.2016011 1.1869506 1.1490272
T   max/avg/min : 307.09653 297.36428 293.7108
P   max/avg/min : 101324.91 101316.16 101307.41
Prg max/avg/min : 101325 101324.89 101324.24
U   max/avg/min : 0.021071986 0.010124807 -0.011224682
Prg max-min : 0.76548602
 
Iteration Number = 35

DILUPBiCG:  Solving for Ux, Initial residual = 0.062611631, Final residual = 6.2561542e-05, No Iterations 2
DILUPBiCG:  Solving for Uy, Initial residual = 0.0024327719, Final residual = 8.4998796e-08, No Iterations 3
DILUPBiCG:  Solving for Uz, Initial residual = 0.049756335, Final residual = 9.3340984e-06, No Iterations 2
DILUPBiCG:  Solving for h, Initial residual = 0.014053791, Final residual = 6.4065548e-06, No Iterations 4
GAMG:  Solving for p_rgh, Initial residual = 0.0076067552, Final residual = 4.8199827e-06, No Iterations 4
time step continuity errors : sum local = 5.7651544e-05, global = 1.1282986e-05, cumulative = 0.00017565262
ExecutionTime = 1.31 s  ClockTime = 1 s
Inflow      : -2.1574492e-08 [kg/s]
Outflow     : -1.2164489e-08 [kg/s]
EnergyInflow  : -0.0063744469 [W]
EnergyOutflow : -0.0025764329 [W]
rho max/avg/min : 1.2015989 1.186552 1.1483368
T   max/avg/min : 307.28114 297.4659 293.71132
P   max/avg/min : 101324.91 101316.16 101307.41
Prg max/avg/min : 101325 101324.89 101324.23
U   max/avg/min : 0.023232856 0.011068738 -0.012354234
Prg max-min : 0.77536755
 
Iteration Number = 36

DILUPBiCG:  Solving for Ux, Initial residual = 0.056957801, Final residual = 5.4045304e-05, No Iterations 2
DILUPBiCG:  Solving for Uy, Initial residual = 0.0026547033, Final residual = 6.6976234e-08, No Iterations 3
DILUPBiCG:  Solving for Uz, Initial residual = 0.047367526, Final residual = 9.7826568e-06, No Iterations 2
DILUPBiCG:  Solving for h, Initial residual = 0.013605265, Final residual = 2.017615e-06, No Iterations 5
GAMG:  Solving for p_rgh, Initial residual = 0.0085773091, Final residual = 5.8617696e-06, No Iterations 4
time step continuity errors : sum local = 7.3598591e-05, global = 4.387292e-05, cumulative = 0.00021952554
ExecutionTime = 1.35 s  ClockTime = 1 s
Inflow      : 1.4473929e-07 [kg/s]
Outflow     : 1.8132927e-07 [kg/s]
EnergyInflow  : 0.042764988 [W]
EnergyOutflow : 0.054823238 [W]
rho max/avg/min : 1.2015968 1.1861571 1.1476586
T   max/avg/min : 307.46273 297.56664 293.71183
P   max/avg/min : 101324.91 101316.16 101307.41
Prg max/avg/min : 101325 101324.89 101324.22
U   max/avg/min : 0.025532256 0.01206878 -0.013388624
Prg max-min : 0.78499027
 
Iteration Number = 37

DILUPBiCG:  Solving for Ux, Initial residual = 0.055595102, Final residual = 5.4909051e-05, No Iterations 2
DILUPBiCG:  Solving for Uy, Initial residual = 0.0032500416, Final residual = 3.5473982e-07, No Iterations 3
DILUPBiCG:  Solving for Uz, Initial residual = 0.044362268, Final residual = 9.8380209e-06, No Iterations 2
DILUPBiCG:  Solving for h, Initial residual = 0.013166205, Final residual = 5.6432125e-06, No Iterations 4
GAMG:  Solving for p_rgh, Initial residual = 0.0069220559, Final residual = 4.976695e-06, No Iterations 4
time step continuity errors : sum local = 6.549063e-05, global = 2.3328957e-05, cumulative = 0.0002428545
ExecutionTime = 1.38 s  ClockTime = 1 s
Inflow      : 4.1676164e-07 [kg/s]
Outflow     : 4.3621797e-07 [kg/s]
EnergyInflow  : 0.12313731 [W]
EnergyOutflow : 0.13040295 [W]
rho max/avg/min : 1.2015962 1.1857667 1.1469925
T   max/avg/min : 307.64129 297.66631 293.71199
P   max/avg/min : 101324.91 101316.16 101307.41
Prg max/avg/min : 101325 101324.89 101324.21
U   max/avg/min : 0.027957691 0.013130946 -0.014403275
Prg max-min : 0.79445313
 
Iteration Number = 38

DILUPBiCG:  Solving for Ux, Initial residual = 0.05366347, Final residual = 5.1978352e-06, No Iterations 3
DILUPBiCG:  Solving for Uy, Initial residual = 0.0036104003, Final residual = 1.3690315e-07, No Iterations 3
DILUPBiCG:  Solving for Uz, Initial residual = 0.043487355, Final residual = 1.0359896e-05, No Iterations 2
DILUPBiCG:  Solving for h, Initial residual = 0.012747305, Final residual = 7.4785486e-06, No Iterations 4
GAMG:  Solving for p_rgh, Initial residual = 0.0062701083, Final residual = 4.5380982e-06, No Iterations 4
time step continuity errors : sum local = 6.4289789e-05, global = -1.9658216e-05, cumulative = 0.00022319628
ExecutionTime = 1.42 s  ClockTime = 1 s
Inflow      : 7.1174844e-07 [kg/s]
Outflow     : 6.953535e-07 [kg/s]
EnergyInflow  : 0.21029476 [W]
EnergyOutflow : 0.20726449 [W]
rho max/avg/min : 1.2015965 1.1853811 1.1463378
T   max/avg/min : 307.817 297.76485 293.71192
P   max/avg/min : 101324.91 101316.16 101307.41
Prg max/avg/min : 101325 101324.88 101324.2
U   max/avg/min : 0.03048306 0.014229902 -0.015402654
Prg max-min : 0.80375069
 
Iteration Number = 39

DILUPBiCG:  Solving for Ux, Initial residual = 0.049502194, Final residual = 2.0308685e-06, No Iterations 3
DILUPBiCG:  Solving for Uy, Initial residual = 0.0035533316, Final residual = 1.1346457e-07, No Iterations 3
DILUPBiCG:  Solving for Uz, Initial residual = 0.040315478, Final residual = 9.5935137e-06, No Iterations 2
DILUPBiCG:  Solving for h, Initial residual = 0.012345099, Final residual = 4.1537917e-06, No Iterations 5
GAMG:  Solving for p_rgh, Initial residual = 0.0059955286, Final residual = 2.27521e-06, No Iterations 4
time step continuity errors : sum local = 3.3581968e-05, global = 1.1189699e-06, cumulative = 0.00022431525
ExecutionTime = 1.46 s  ClockTime = 1 s
Inflow      : 1.0107914e-06 [kg/s]
Outflow     : 1.0117247e-06 [kg/s]
EnergyInflow  : 0.29865066 [W]
EnergyOutflow : 0.30107362 [W]
rho max/avg/min : 1.2015982 1.1850002 1.1456938
T   max/avg/min : 307.99003 297.86226 293.71149
P   max/avg/min : 101324.91 101316.16 101307.41
Prg max/avg/min : 101325 101324.88 101324.19
U   max/avg/min : 0.033105433 0.015361375 -0.016334728
Prg max-min : 0.81290214
 
Iteration Number = 40

DILUPBiCG:  Solving for Ux, Initial residual = 0.047734854, Final residual = 3.5814806e-06, No Iterations 3
DILUPBiCG:  Solving for Uy, Initial residual = 0.0030676359, Final residual = 1.1551e-07, No Iterations 3
DILUPBiCG:  Solving for Uz, Initial residual = 0.039414325, Final residual = 9.8065441e-06, No Iterations 2
DILUPBiCG:  Solving for h, Initial residual = 0.011967063, Final residual = 8.9495692e-07, No Iterations 6
GAMG:  Solving for p_rgh, Initial residual = 0.0078520282, Final residual = 6.5186206e-06, No Iterations 4
time step continuity errors : sum local = 9.3267491e-05, global = 4.3620198e-05, cumulative = 0.00026793545
ExecutionTime = 1.49 s  ClockTime = 1 s
Inflow      : 1.3577596e-06 [kg/s]
Outflow     : 1.3941388e-06 [kg/s]
EnergyInflow  : 0.40116664 [W]
EnergyOutflow : 0.41446673 [W]
rho max/avg/min : 1.2016024 1.1846244 1.1450601
T   max/avg/min : 308.16048 297.95847 293.71048
P   max/avg/min : 101324.91 101316.16 101307.42
Prg max/avg/min : 101325 101324.88 101324.18
U   max/avg/min : 0.035832888 0.016548302 -0.01716434
Prg max-min : 0.82178179
 
Iteration Number = 41

DILUPBiCG:  Solving for Ux, Initial residual = 0.044965468, Final residual = 2.8358148e-06, No Iterations 3
DILUPBiCG:  Solving for Uy, Initial residual = 0.0032291624, Final residual = 1.4964551e-07, No Iterations 3
DILUPBiCG:  Solving for Uz, Initial residual = 0.0374721, Final residual = 9.491495e-06, No Iterations 2
DILUPBiCG:  Solving for h, Initial residual = 0.011593103, Final residual = 1.3660022e-06, No Iterations 6
GAMG:  Solving for p_rgh, Initial residual = 0.0071504697, Final residual = 4.1791497e-06, No Iterations 4
time step continuity errors : sum local = 5.6922913e-05, global = 1.1641798e-05, cumulative = 0.00027957725
ExecutionTime = 1.53 s  ClockTime = 2 s
Inflow      : 1.8318664e-06 [kg/s]
Outflow     : 1.8415757e-06 [kg/s]
EnergyInflow  : 0.54124729 [W]
EnergyOutflow : 0.54712039 [W]
rho max/avg/min : 1.2016156 1.184254 1.1444365
T   max/avg/min : 308.3284 298.05336 293.70724
P   max/avg/min : 101324.91 101316.16 101307.42
Prg max/avg/min : 101325 101324.87 101324.17
U   max/avg/min : 0.038663145 0.017787413 -0.017905615
Prg max-min : 0.83054032
 
Iteration Number = 42

DILUPBiCG:  Solving for Ux, Initial residual = 0.045299079, Final residual = 3.1564274e-06, No Iterations 3
DILUPBiCG:  Solving for Uy, Initial residual = 0.0037013467, Final residual = 1.7584698e-07, No Iterations 3
DILUPBiCG:  Solving for Uz, Initial residual = 0.037241205, Final residual = 9.9611914e-06, No Iterations 2
DILUPBiCG:  Solving for h, Initial residual = 0.011228388, Final residual = 1.4392422e-06, No Iterations 6
GAMG:  Solving for p_rgh, Initial residual = 0.0072367112, Final residual = 4.961268e-06, No Iterations 4
time step continuity errors : sum local = 6.3202031e-05, global = 3.2754931e-05, cumulative = 0.00031233218
ExecutionTime = 1.57 s  ClockTime = 2 s
Inflow      : 2.3081029e-06 [kg/s]
Outflow     : 2.3354205e-06 [kg/s]
EnergyInflow  : 0.68195717 [W]
EnergyOutflow : 0.69352881 [W]
rho max/avg/min : 1.2016298 1.1838896 1.1438226
T   max/avg/min : 308.49388 298.14683 293.70376
P   max/avg/min : 101324.91 101316.16 101307.42
Prg max/avg/min : 101325 101324.87 101324.16
U   max/avg/min : 0.041582156 0.019058296 -0.018549209
Prg max-min : 0.83920028
 
Iteration Number = 43

DILUPBiCG:  Solving for Ux, Initial residual = 0.042827711, Final residual = 3.4124054e-06, No Iterations 3
DILUPBiCG:  Solving for Uy, Initial residual = 0.0044288528, Final residual = 9.4738166e-07, No Iterations 3
DILUPBiCG:  Solving for Uz, Initial residual = 0.034816452, Final residual = 9.0988236e-06, No Iterations 2
DILUPBiCG:  Solving for h, Initial residual = 0.010874649, Final residual = 1.4460437e-06, No Iterations 6
GAMG:  Solving for p_rgh, Initial residual = 0.0079240768, Final residual = 6.0657134e-06, No Iterations 4
time step continuity errors : sum local = 7.2664484e-05, global = 1.7071533e-05, cumulative = 0.00032940371
ExecutionTime = 1.61 s  ClockTime = 2 s
Inflow      : 2.8724328e-06 [kg/s]
Outflow     : 2.8866705e-06 [kg/s]
EnergyInflow  : 0.84869532 [W]
EnergyOutflow : 0.85694723 [W]
rho max/avg/min : 1.2016381 1.1835312 1.1432181
T   max/avg/min : 308.65701 298.23884 293.70175
P   max/avg/min : 101324.91 101316.16 101307.42
Prg max/avg/min : 101325 101324.87 101324.16
U   max/avg/min : 0.044590562 0.020378537 -0.019109618
Prg max-min : 0.8477313
 
Iteration Number = 44

DILUPBiCG:  Solving for Ux, Initial residual = 0.042460589, Final residual = 3.5661712e-06, No Iterations 3
DILUPBiCG:  Solving for Uy, Initial residual = 0.0046204932, Final residual = 2.3216115e-07, No Iterations 3
DILUPBiCG:  Solving for Uz, Initial residual = 0.035638835, Final residual = 1.0001281e-05, No Iterations 2
DILUPBiCG:  Solving for h, Initial residual = 0.010543348, Final residual = 8.0496165e-06, No Iterations 5
GAMG:  Solving for p_rgh, Initial residual = 0.011338449, Final residual = 5.9155937e-06, No Iterations 4
time step continuity errors : sum local = 6.6720891e-05, global = 3.5660382e-06, cumulative = 0.00033296975
ExecutionTime = 1.64 s  ClockTime = 2 s
Inflow      : 3.4975053e-06 [kg/s]
Outflow     : 3.5004794e-06 [kg/s]
EnergyInflow  : 1.0333806 [W]
EnergyOutflow : 1.0389423 [W]
rho max/avg/min : 1.2016425 1.1831793 1.1426226
T   max/avg/min : 308.81786 298.32926 293.70067
P   max/avg/min : 101324.91 101316.16 101307.42
Prg max/avg/min : 101325 101324.87 101324.15
U   max/avg/min : 0.04768001 0.021734122 -0.019512804
Prg max-min : 0.85585423
 
Iteration Number = 45

DILUPBiCG:  Solving for Ux, Initial residual = 0.041067737, Final residual = 9.5690575e-06, No Iterations 3
DILUPBiCG:  Solving for Uy, Initial residual = 0.0051778018, Final residual = 6.1590505e-07, No Iterations 3
DILUPBiCG:  Solving for Uz, Initial residual = 0.033079364, Final residual = 8.9101105e-06, No Iterations 2
DILUPBiCG:  Solving for h, Initial residual = 0.01020864, Final residual = 6.9346452e-06, No Iterations 5
GAMG:  Solving for p_rgh, Initial residual = 0.010074859, Final residual = 5.4056277e-06, No Iterations 4
time step continuity errors : sum local = 5.7260452e-05, global = -4.5543562e-06, cumulative = 0.00032841539
ExecutionTime = 1.68 s  ClockTime = 2 s
Inflow      : 4.1844084e-06 [kg/s]
Outflow     : 4.1806101e-06 [kg/s]
EnergyInflow  : 1.2363345 [W]
EnergyOutflow : 1.2405898 [W]
rho max/avg/min : 1.2016445 1.1828338 1.1420355
T   max/avg/min : 308.97662 298.41814 293.70017
P   max/avg/min : 101324.91 101316.16 101307.42
Prg max/avg/min : 101325 101324.86 101324.14
U   max/avg/min : 0.050851969 0.023133036 -0.019843734
Prg max-min : 0.86400088
 
Iteration Number = 46

DILUPBiCG:  Solving for Ux, Initial residual = 0.042123895, Final residual = 4.5714858e-06, No Iterations 3
DILUPBiCG:  Solving for Uy, Initial residual = 0.0060065422, Final residual = 2.6987974e-07, No Iterations 3
DILUPBiCG:  Solving for Uz, Initial residual = 0.034555215, Final residual = 1.0438962e-05, No Iterations 2
DILUPBiCG:  Solving for h, Initial residual = 0.0098838349, Final residual = 8.1688016e-06, No Iterations 5
GAMG:  Solving for p_rgh, Initial residual = 0.011244763, Final residual = 5.8497768e-06, No Iterations 4
time step continuity errors : sum local = 5.9014172e-05, global = 2.28146e-05, cumulative = 0.00035122999
ExecutionTime = 1.71 s  ClockTime = 2 s
Inflow      : 4.9409603e-06 [kg/s]
Outflow     : 4.9599877e-06 [kg/s]
EnergyInflow  : 1.459867 [W]
EnergyOutflow : 1.4716204 [W]
rho max/avg/min : 1.2016454 1.1824953 1.1414568
T   max/avg/min : 309.13328 298.5053 293.69997
P   max/avg/min : 101324.91 101316.16 101307.42
Prg max/avg/min : 101325 101324.86 101324.13
U   max/avg/min : 0.054112986 0.02458005 -0.019984674
Prg max-min : 0.87207649
 
Iteration Number = 47

DILUPBiCG:  Solving for Ux, Initial residual = 0.039976875, Final residual = 2.5049617e-06, No Iterations 3
DILUPBiCG:  Solving for Uy, Initial residual = 0.0063457091, Final residual = 3.564508e-07, No Iterations 3
DILUPBiCG:  Solving for Uz, Initial residual = 0.032616372, Final residual = 9.7632256e-06, No Iterations 2
DILUPBiCG:  Solving for h, Initial residual = 0.0095729881, Final residual = 9.4914201e-06, No Iterations 5
GAMG:  Solving for p_rgh, Initial residual = 0.013666706, Final residual = 9.8119949e-06, No Iterations 4
time step continuity errors : sum local = 9.6121649e-05, global = -6.9830784e-06, cumulative = 0.00034424691
ExecutionTime = 1.75 s  ClockTime = 2 s
Inflow      : 5.8059289e-06 [kg/s]
Outflow     : 5.800105e-06 [kg/s]
EnergyInflow  : 1.7154325 [W]
EnergyOutflow : 1.7206581 [W]
rho max/avg/min : 1.2016457 1.1821641 1.1408863
T   max/avg/min : 309.28786 298.59071 293.69986
P   max/avg/min : 101324.91 101316.16 101307.42
Prg max/avg/min : 101325 101324.86 101324.12
U   max/avg/min : 0.057433602 0.026062001 -0.020042693
Prg max-min : 0.88009164
 
Iteration Number = 48

DILUPBiCG:  Solving for Ux, Initial residual = 0.042031162, Final residual = 3.3849603e-06, No Iterations 3
DILUPBiCG:  Solving for Uy, Initial residual = 0.0061218399, Final residual = 1.9331143e-06, No Iterations 3
DILUPBiCG:  Solving for Uz, Initial residual = 0.03358818, Final residual = 1.1360624e-05, No Iterations 2
DILUPBiCG:  Solving for h, Initial residual = 0.0092751009, Final residual = 2.2149706e-06, No Iterations 6
GAMG:  Solving for p_rgh, Initial residual = 0.020220261, Final residual = 5.8656468e-06, No Iterations 4
time step continuity errors : sum local = 5.5110893e-05, global = 3.8894807e-05, cumulative = 0.00038314172
ExecutionTime = 1.79 s  ClockTime = 2 s
Inflow      : 6.6559271e-06 [kg/s]
Outflow     : 6.6883654e-06 [kg/s]
EnergyInflow  : 1.9665749 [W]
EnergyOutflow : 1.9840182 [W]
rho max/avg/min : 1.2016458 1.1818405 1.1403245
T   max/avg/min : 309.44022 298.67426 293.69969
P   max/avg/min : 101324.91 101316.16 101307.42
Prg max/avg/min : 101325 101324.86 101324.11
U   max/avg/min : 0.060819977 0.027568879 -0.02002795
Prg max-min : 0.88728546
 
Iteration Number = 49

DILUPBiCG:  Solving for Ux, Initial residual = 0.039848486, Final residual = 2.6562248e-06, No Iterations 3
DILUPBiCG:  Solving for Uy, Initial residual = 0.0056822084, Final residual = 3.3691782e-07, No Iterations 3
DILUPBiCG:  Solving for Uz, Initial residual = 0.031529613, Final residual = 1.0367634e-05, No Iterations 2
DILUPBiCG:  Solving for h, Initial residual = 0.0089582559, Final residual = 2.0842012e-06, No Iterations 6
GAMG:  Solving for p_rgh, Initial residual = 0.015790793, Final residual = 1.0105843e-05, No Iterations 4
time step continuity errors : sum local = 8.9887562e-05, global = -8.2430461e-06, cumulative = 0.00037489867
ExecutionTime = 1.83 s  ClockTime = 2 s
Inflow      : 7.6320001e-06 [kg/s]
Outflow     : 7.6251254e-06 [kg/s]
EnergyInflow  : 2.2549675 [W]
EnergyOutflow : 2.2617742 [W]
rho max/avg/min : 1.2016458 1.1815247 1.1397708
T   max/avg/min : 309.59056 298.75587 293.69951
P   max/avg/min : 101324.91 101316.16 101307.42
Prg max/avg/min : 101325 101324.85 101324.11
U   max/avg/min : 0.064272299 0.029104137 -0.019881732
Prg max-min : 0.89483687
 
Iteration Number = 50

DILUPBiCG:  Solving for Ux, Initial residual = 0.040180838, Final residual = 3.5315641e-06, No Iterations 3
DILUPBiCG:  Solving for Uy, Initial residual = 0.0055534846, Final residual = 2.6211002e-07, No Iterations 3
DILUPBiCG:  Solving for Uz, Initial residual = 0.032649972, Final residual = 1.256686e-05, No Iterations 2
DILUPBiCG:  Solving for h, Initial residual = 0.0086520867, Final residual = 6.5266561e-06, No Iterations 5
GAMG:  Solving for p_rgh, Initial residual = 0.017445903, Final residual = 4.9279664e-06, No Iterations 4
time step continuity errors : sum local = 4.1541906e-05, global = 3.5482874e-05, cumulative = 0.00041038155
ExecutionTime = 1.86 s  ClockTime = 2 s
Inflow      : 8.5532279e-06 [kg/s]
Outflow     : 8.5828206e-06 [kg/s]
EnergyInflow  : 2.5271555 [W]
EnergyOutflow : 2.5457616 [W]
rho max/avg/min : 1.2016458 1.1812171 1.1392245
T   max/avg/min : 309.739 298.8355 293.69928
P   max/avg/min : 101324.91 101316.16 101307.42
Prg max/avg/min : 101325 101324.85 101324.1
U   max/avg/min : 0.067767997 0.03065111 -0.019640312
Prg max-min : 0.90232059
 
Iteration Number = 51

DILUPBiCG:  Solving for Ux, Initial residual = 0.035613716, Final residual = 2.1919888e-06, No Iterations 3
DILUPBiCG:  Solving for Uy, Initial residual = 0.0052086699, Final residual = 5.0777148e-07, No Iterations 3
DILUPBiCG:  Solving for Uz, Initial residual = 0.030112586, Final residual = 1.1093323e-05, No Iterations 2
DILUPBiCG:  Solving for h, Initial residual = 0.0083562351, Final residual = 4.2462439e-06, No Iterations 6
GAMG:  Solving for p_rgh, Initial residual = 0.019511535, Final residual = 1.3226146e-05, No Iterations 3
time step continuity errors : sum local = 0.00010678679, global = 2.1179891e-05, cumulative = 0.00043156144
ExecutionTime = 1.9 s  ClockTime = 2 s
Inflow      : 9.7111652e-06 [kg/s]
Outflow     : 9.7288292e-06 [kg/s]
EnergyInflow  : 2.8692822 [W]
EnergyOutflow : 2.8854796 [W]
rho max/avg/min : 1.2016458 1.1809178 1.1386859
T   max/avg/min : 309.88553 298.9131 293.69906
P   max/avg/min : 101324.91 101316.16 101307.41
Prg max/avg/min : 101325 101324.85 101324.09
U   max/avg/min : 0.07133318 0.032277059 -0.018978156
Prg max-min : 0.91146977
 
Iteration Number = 52

DILUPBiCG:  Solving for Ux, Initial residual = 0.035943023, Final residual = 2.1523051e-06, No Iterations 3
DILUPBiCG:  Solving for Uy, Initial residual = 0.0060698526, Final residual = 4.1674331e-07, No Iterations 3
DILUPBiCG:  Solving for Uz, Initial residual = 0.034592897, Final residual = 1.707382e-05, No Iterations 2
DILUPBiCG:  Solving for h, Initial residual = 0.0080663361, Final residual = 4.2205619e-06, No Iterations 6
GAMG:  Solving for p_rgh, Initial residual = 0.023867581, Final residual = 6.7661057e-06, No Iterations 4
time step continuity errors : sum local = 5.3840524e-05, global = 2.1330697e-06, cumulative = 0.00043369451
ExecutionTime = 1.94 s  ClockTime = 2 s
Inflow      : 1.0907552e-05 [kg/s]
Outflow     : 1.0909331e-05 [kg/s]
EnergyInflow  : 3.2227694 [W]
EnergyOutflow : 3.2354553 [W]
rho max/avg/min : 1.2016459 1.1806269 1.1381549
T   max/avg/min : 310.0301 298.9886 293.69876
P   max/avg/min : 101324.91 101316.16 101307.42
Prg max/avg/min : 101325 101324.84 101324.08
U   max/avg/min : 0.074949007 0.033928538 -0.018282921
Prg max-min : 0.91754644
 
Iteration Number = 53

DILUPBiCG:  Solving for Ux, Initial residual = 0.032006691, Final residual = 3.0601216e-06, No Iterations 3
DILUPBiCG:  Solving for Uy, Initial residual = 0.0060765487, Final residual = 3.7936963e-07, No Iterations 3
DILUPBiCG:  Solving for Uz, Initial residual = 0.029848392, Final residual = 1.3124489e-05, No Iterations 2
DILUPBiCG:  Solving for h, Initial residual = 0.0077858486, Final residual = 7.1996824e-06, No Iterations 5
GAMG:  Solving for p_rgh, Initial residual = 0.036189884, Final residual = 3.0611415e-05, No Iterations 3
time step continuity errors : sum local = 0.00023996155, global = 0.00010794073, cumulative = 0.00054163523
ExecutionTime = 1.97 s  ClockTime = 2 s
Inflow      : 1.1978318e-05 [kg/s]
Outflow     : 1.2068341e-05 [kg/s]
EnergyInflow  : 3.5391402 [W]
EnergyOutflow : 3.5791435 [W]
rho max/avg/min : 1.2016459 1.1803449 1.1376314
T   max/avg/min : 310.17276 299.06194 293.6985
P   max/avg/min : 101324.91 101316.16 101307.41
Prg max/avg/min : 101325 101324.84 101324.07
U   max/avg/min : 0.078626107 0.035556033 -0.017434469
Prg max-min : 0.9263953
 
Iteration Number = 54

DILUPBiCG:  Solving for Ux, Initial residual = 0.030872248, Final residual = 2.291823e-06, No Iterations 3
DILUPBiCG:  Solving for Uy, Initial residual = 0.00736419, Final residual = 3.8907187e-07, No Iterations 3
DILUPBiCG:  Solving for Uz, Initial residual = 0.031064421, Final residual = 1.5045213e-05, No Iterations 2
DILUPBiCG:  Solving for h, Initial residual = 0.0074899845, Final residual = 2.1947504e-06, No Iterations 6
GAMG:  Solving for p_rgh, Initial residual = 0.024969047, Final residual = 1.4829512e-05, No Iterations 4
time step continuity errors : sum local = 0.00011054341, global = 2.8410115e-05, cumulative = 0.00057004535
ExecutionTime = 2 s  ClockTime = 2 s
Inflow      : 1.3242876e-05 [kg/s]
Outflow     : 1.326657e-05 [kg/s]
EnergyInflow  : 3.9127692 [W]
EnergyOutflow : 3.9344985 [W]
rho max/avg/min : 1.2016458 1.1800714 1.1371148
T   max/avg/min : 310.31368 299.13316 293.6982
P   max/avg/min : 101324.91 101316.16 101307.41
Prg max/avg/min : 101325 101324.84 101324.07
U   max/avg/min : 0.082408475 0.037222738 -0.01642758
Prg max-min : 0.93423351
 
Iteration Number = 55

DILUPBiCG:  Solving for Ux, Initial residual = 0.0271451, Final residual = 2.2481324e-06, No Iterations 3
DILUPBiCG:  Solving for Uy, Initial residual = 0.0081713, Final residual = 7.8966253e-07, No Iterations 3
DILUPBiCG:  Solving for Uz, Initial residual = 0.03026113, Final residual = 1.5625452e-05, No Iterations 2
DILUPBiCG:  Solving for h, Initial residual = 0.00720489, Final residual = 6.9838867e-06, No Iterations 5
GAMG:  Solving for p_rgh, Initial residual = 0.027318637, Final residual = 2.1580903e-05, No Iterations 3
time step continuity errors : sum local = 0.00015384292, global = -1.5335422e-05, cumulative = 0.00055470993
ExecutionTime = 2.05 s  ClockTime = 2 s
Inflow      : 1.443973e-05 [kg/s]
Outflow     : 1.442694e-05 [kg/s]
EnergyInflow  : 4.2663944 [W]
EnergyOutflow : 4.2786723 [W]
rho max/avg/min : 1.2016459 1.179807 1.1366051
T   max/avg/min : 310.45283 299.20214 293.69787
P   max/avg/min : 101324.91 101316.16 101307.41
Prg max/avg/min : 101325 101324.84 101324.06
U   max/avg/min : 0.086223434 0.038876059 -0.015320841
Prg max-min : 0.94168132
 
Iteration Number = 56

DILUPBiCG:  Solving for Ux, Initial residual = 0.026285173, Final residual = 3.2423562e-06, No Iterations 3
DILUPBiCG:  Solving for Uy, Initial residual = 0.0082283503, Final residual = 1.9787323e-08, No Iterations 4
DILUPBiCG:  Solving for Uz, Initial residual = 0.028610721, Final residual = 1.385158e-05, No Iterations 2
DILUPBiCG:  Solving for h, Initial residual = 0.0069351978, Final residual = 2.3843693e-06, No Iterations 8
GAMG:  Solving for p_rgh, Initial residual = 0.029553359, Final residual = 1.5136826e-05, No Iterations 4
time step continuity errors : sum local = 0.00010361867, global = 1.6887676e-05, cumulative = 0.0005715976
ExecutionTime = 2.08 s  ClockTime = 2 s
Inflow      : 1.5548923e-05 [kg/s]
Outflow     : 1.5563007e-05 [kg/s]
EnergyInflow  : 4.594119 [W]
EnergyOutflow : 4.6156751 [W]
rho max/avg/min : 1.2016458 1.1795511 1.1361022
T   max/avg/min : 310.59025 299.26903 293.69757
P   max/avg/min : 101324.91 101316.16 101307.41
Prg max/avg/min : 101325 101324.83 101324.05
U   max/avg/min : 0.090080853 0.040529899 -0.014180575
Prg max-min : 0.94990711
 
Iteration Number = 57

DILUPBiCG:  Solving for Ux, Initial residual = 0.026732907, Final residual = 1.748899e-06, No Iterations 3
DILUPBiCG:  Solving for Uy, Initial residual = 0.0090242099, Final residual = 4.5957567e-07, No Iterations 3
DILUPBiCG:  Solving for Uz, Initial residual = 0.028460154, Final residual = 1.4744338e-05, No Iterations 2
DILUPBiCG:  Solving for h, Initial residual = 0.0066744683, Final residual = 1.5574624e-06, No Iterations 8
GAMG:  Solving for p_rgh, Initial residual = 0.030331174, Final residual = 2.9088333e-05, No Iterations 3
time step continuity errors : sum local = 0.00019699539, global = 7.8286714e-05, cumulative = 0.00064988432
ExecutionTime = 2.11 s  ClockTime = 2 s
Inflow      : 1.6880187e-05 [kg/s]
Outflow     : 1.6945478e-05 [kg/s]
EnergyInflow  : 4.9874573 [W]
EnergyOutflow : 5.025559 [W]
rho max/avg/min : 1.2016458 1.1793037 1.1356061
T   max/avg/min : 310.72594 299.33379 293.69721
P   max/avg/min : 101324.91 101316.16 101307.41
Prg max/avg/min : 101325 101324.83 101324.04
U   max/avg/min : 0.094008795 0.042275952 -0.012445509
Prg max-min : 0.95989454
 
Iteration Number = 58

DILUPBiCG:  Solving for Ux, Initial residual = 0.023071007, Final residual = 4.2511132e-06, No Iterations 3
DILUPBiCG:  Solving for Uy, Initial residual = 0.0090839882, Final residual = 5.0255014e-07, No Iterations 3
DILUPBiCG:  Solving for Uz, Initial residual = 0.031348148, Final residual = 1.7161982e-05, No Iterations 2
DILUPBiCG:  Solving for h, Initial residual = 0.006419725, Final residual = 6.2100632e-06, No Iterations 6
GAMG:  Solving for p_rgh, Initial residual = 0.030684939, Final residual = 1.4415737e-05, No Iterations 3
time step continuity errors : sum local = 9.2576298e-05, global = -3.7178382e-06, cumulative = 0.00064616648
ExecutionTime = 2.15 s  ClockTime = 2 s
Inflow      : 1.7996334e-05 [kg/s]
Outflow     : 1.7993233e-05 [kg/s]
EnergyInflow  : 5.3172363 [W]
EnergyOutflow : 5.3364561 [W]
rho max/avg/min : 1.2016458 1.1790648 1.1351168
T   max/avg/min : 310.85988 299.39646 293.69684
P   max/avg/min : 101324.91 101316.16 101307.41
Prg max/avg/min : 101325 101324.83 101324.04
U   max/avg/min : 0.09792686 0.043926371 -0.011114526
Prg max-min : 0.96330197
 
Iteration Number = 59

DILUPBiCG:  Solving for Ux, Initial residual = 0.028325282, Final residual = 1.4196771e-06, No Iterations 3
DILUPBiCG:  Solving for Uy, Initial residual = 0.010024112, Final residual = 1.0994055e-06, No Iterations 3
DILUPBiCG:  Solving for Uz, Initial residual = 0.023062214, Final residual = 1.1087968e-05, No Iterations 2
DILUPBiCG:  Solving for h, Initial residual = 0.0061760179, Final residual = 4.4016094e-06, No Iterations 8
GAMG:  Solving for p_rgh, Initial residual = 0.026619209, Final residual = 8.3388498e-06, No Iterations 4
time step continuity errors : sum local = 5.1847258e-05, global = 1.6703253e-05, cumulative = 0.00066286973
ExecutionTime = 2.19 s  ClockTime = 2 s
Inflow      : 1.9225483e-05 [kg/s]
Outflow     : 1.9239414e-05 [kg/s]
EnergyInflow  : 5.6804035 [W]
EnergyOutflow : 5.7060034 [W]
rho max/avg/min : 1.2016458 1.1788341 1.1346342
T   max/avg/min : 310.99209 299.4571 293.6965
P   max/avg/min : 101324.91 101316.16 101307.41
Prg max/avg/min : 101325 101324.82 101324.02
U   max/avg/min : 0.10188927 0.045633125 -0.0090511826
Prg max-min : 0.9769969
 
Iteration Number = 60

DILUPBiCG:  Solving for Ux, Initial residual = 0.020163438, Final residual = 4.3429375e-06, No Iterations 3
DILUPBiCG:  Solving for Uy, Initial residual = 0.0098388428, Final residual = 1.4950742e-06, No Iterations 3
DILUPBiCG:  Solving for Uz, Initial residual = 0.031644963, Final residual = 1.7652076e-05, No Iterations 2
DILUPBiCG:  Solving for h, Initial residual = 0.0059471641, Final residual = 5.3696642e-06, No Iterations 7
GAMG:  Solving for p_rgh, Initial residual = 0.028402906, Final residual = 7.3332852e-06, No Iterations 4
time step continuity errors : sum local = 4.3621206e-05, global = -1.1808881e-05, cumulative = 0.00065106085
ExecutionTime = 2.23 s  ClockTime = 2 s
Inflow      : 2.0545855e-05 [kg/s]
Outflow     : 2.0536007e-05 [kg/s]
EnergyInflow  : 6.0705236 [W]
EnergyOutflow : 6.0904386 [W]
rho max/avg/min : 1.2016458 1.178611 1.1341575
T   max/avg/min : 311.12279 299.51581 293.69608
P   max/avg/min : 101324.91 101316.16 101307.41
Prg max/avg/min : 101325 101324.82 101324.02
U   max/avg/min : 0.10590564 0.047393067 -0.0071076945
Prg max-min : 0.9810939
 
Iteration Number = 61

DILUPBiCG:  Solving for Ux, Initial residual = 0.026164971, Final residual = 1.0090596e-06, No Iterations 3
DILUPBiCG:  Solving for Uy, Initial residual = 0.010045913, Final residual = 1.2162108e-06, No Iterations 3
DILUPBiCG:  Solving for Uz, Initial residual = 0.024960025, Final residual = 1.249736e-05, No Iterations 2
DILUPBiCG:  Solving for h, Initial residual = 0.0057209343, Final residual = 5.256914e-06, No Iterations 7
GAMG:  Solving for p_rgh, Initial residual = 0.028515908, Final residual = 1.3563649e-05, No Iterations 4
time step continuity errors : sum local = 7.6202494e-05, global = 1.0693047e-05, cumulative = 0.0006617539
ExecutionTime = 2.27 s  ClockTime = 2 s
Inflow      : 2.1653175e-05 [kg/s]
Outflow     : 2.1662093e-05 [kg/s]
EnergyInflow  : 6.3976949 [W]
EnergyOutflow : 6.4243825 [W]
rho max/avg/min : 1.2016458 1.1783956 1.1336873
T   max/avg/min : 311.25184 299.57263 293.6957
P   max/avg/min : 101324.91 101316.16 101307.41
Prg max/avg/min : 101325 101324.82 101324.01
U   max/avg/min : 0.10989569 0.049075151 -0.0049151057
Prg max-min : 0.99008906
 
Iteration Number = 62

DILUPBiCG:  Solving for Ux, Initial residual = 0.021029257, Final residual = 5.0376606e-06, No Iterations 3
DILUPBiCG:  Solving for Uy, Initial residual = 0.0095350192, Final residual = 4.0190348e-07, No Iterations 3
DILUPBiCG:  Solving for Uz, Initial residual = 0.026010325, Final residual = 1.3015196e-05, No Iterations 2
DILUPBiCG:  Solving for h, Initial residual = 0.0055154224, Final residual = 1.3117181e-06, No Iterations 8
GAMG:  Solving for p_rgh, Initial residual = 0.046829903, Final residual = 2.6679577e-05, No Iterations 3
time step continuity errors : sum local = 0.00014239013, global = 5.1810613e-05, cumulative = 0.00071356451
ExecutionTime = 2.3 s  ClockTime = 2 s
Inflow      : 2.2790286e-05 [kg/s]
Outflow     : 2.2833496e-05 [kg/s]
EnergyInflow  : 6.733668 [W]
EnergyOutflow : 6.7717124 [W]
rho max/avg/min : 1.2016458 1.1781869 1.1332235
T   max/avg/min : 311.37921 299.62776 293.6953
P   max/avg/min : 101324.91 101316.16 101307.41
Prg max/avg/min : 101325 101324.82 101324
U   max/avg/min : 0.11391839 0.050786498 -0.00260775
Prg max-min : 0.99778513
 
Iteration Number = 63

DILUPBiCG:  Solving for Ux, Initial residual = 0.024154996, Final residual = 1.1993288e-06, No Iterations 3
DILUPBiCG:  Solving for Uy, Initial residual = 0.0092080364, Final residual = 5.0078814e-07, No Iterations 3
DILUPBiCG:  Solving for Uz, Initial residual = 0.025198975, Final residual = 1.2683811e-05, No Iterations 2
DILUPBiCG:  Solving for h, Initial residual = 0.005295545, Final residual = 2.0737911e-06, No Iterations 7
GAMG:  Solving for p_rgh, Initial residual = 0.022414861, Final residual = 2.0710286e-05, No Iterations 4
time step continuity errors : sum local = 0.00010622234, global = -8.5682943e-06, cumulative = 0.00070499622
ExecutionTime = 2.34 s  ClockTime = 2 s
Inflow      : 2.3867309e-05 [kg/s]
Outflow     : 2.3860163e-05 [kg/s]
EnergyInflow  : 7.0518876 [W]
EnergyOutflow : 7.0762005 [W]
rho max/avg/min : 1.2016458 1.177985 1.1327659
T   max/avg/min : 311.50501 299.6812 293.69489
P   max/avg/min : 101324.91 101316.16 101307.41
Prg max/avg/min : 101325 101324.82 101323.99
U   max/avg/min : 0.11794239 0.052457561 -0.00049643451
Prg max-min : 1.0041762
 
Iteration Number = 64

DILUPBiCG:  Solving for Ux, Initial residual = 0.024628436, Final residual = 1.25954e-06, No Iterations 3
DILUPBiCG:  Solving for Uy, Initial residual = 0.009148955, Final residual = 9.8992577e-07, No Iterations 3
DILUPBiCG:  Solving for Uz, Initial residual = 0.022842207, Final residual = 1.0567181e-05, No Iterations 2
DILUPBiCG:  Solving for h, Initial residual = 0.005092087, Final residual = 3.6555248e-06, No Iterations 7
GAMG:  Solving for p_rgh, Initial residual = 0.014988083, Final residual = 2.906758e-06, No Iterations 5
time step continuity errors : sum local = 1.4673456e-05, global = -6.1273935e-06, cumulative = 0.00069886882
ExecutionTime = 2.38 s  ClockTime = 2 s
Inflow      : 2.4737766e-05 [kg/s]
Outflow     : 2.4732656e-05 [kg/s]
EnergyInflow  : 7.3090747 [W]
EnergyOutflow : 7.3349456 [W]
rho max/avg/min : 1.2016458 1.1777895 1.1323147
T   max/avg/min : 311.62914 299.73302 293.69449
P   max/avg/min : 101324.91 101316.16 101307.41
Prg max/avg/min : 101325 101324.82 101323.99
U   max/avg/min : 0.1219822 0.054060176 0
Prg max-min : 1.0105385
 
Iteration Number = 65

DILUPBiCG:  Solving for Ux, Initial residual = 0.024638971, Final residual = 9.0125221e-07, No Iterations 3
DILUPBiCG:  Solving for Uy, Initial residual = 0.0098276431, Final residual = 1.0018578e-06, No Iterations 3
DILUPBiCG:  Solving for Uz, Initial residual = 0.020689624, Final residual = 9.17446e-06, No Iterations 2
DILUPBiCG:  Solving for h, Initial residual = 0.0048958043, Final residual = 4.1753028e-06, No Iterations 6
GAMG:  Solving for p_rgh, Initial residual = 0.015538804, Final residual = 1.3167841e-05, No Iterations 4
time step continuity errors : sum local = 6.5773853e-05, global = 2.0086499e-06, cumulative = 0.00070087747
ExecutionTime = 2.41 s  ClockTime = 2 s
Inflow      : 2.5666696e-05 [kg/s]
Outflow     : 2.5668371e-05 [kg/s]
EnergyInflow  : 7.5835385 [W]
EnergyOutflow : 7.6122537 [W]
rho max/avg/min : 1.2016458 1.1775995 1.1318696
T   max/avg/min : 311.75167 299.78345 293.6941
P   max/avg/min : 101324.91 101316.16 101307.4
Prg max/avg/min : 101325 101324.81 101323.98
U   max/avg/min : 0.12607196 0.05568582 0
Prg max-min : 1.0200213
 
Iteration Number = 66

DILUPBiCG:  Solving for Ux, Initial residual = 0.022213204, Final residual = 1.0788645e-06, No Iterations 3
DILUPBiCG:  Solving for Uy, Initial residual = 0.0094900015, Final residual = 1.9450502e-06, No Iterations 3
DILUPBiCG:  Solving for Uz, Initial residual = 0.022750148, Final residual = 1.073217e-05, No Iterations 2
DILUPBiCG:  Solving for h, Initial residual = 0.0046961696, Final residual = 2.4070655e-06, No Iterations 6
GAMG:  Solving for p_rgh, Initial residual = 0.013033496, Final residual = 2.972811e-06, No Iterations 5
time step continuity errors : sum local = 1.473822e-05, global = -2.5528184e-06, cumulative = 0.00069832466
ExecutionTime = 2.45 s  ClockTime = 2 s
Inflow      : 2.6627064e-05 [kg/s]
Outflow     : 2.6624935e-05 [kg/s]
EnergyInflow  : 7.8672909 [W]
EnergyOutflow : 7.8955977 [W]
rho max/avg/min : 1.2016458 1.1774146 1.1314302
T   max/avg/min : 311.87275 299.83259 293.6937
P   max/avg/min : 101324.91 101316.16 101307.4
Prg max/avg/min : 101325 101324.81 101323.97
U   max/avg/min : 0.13027095 0.057327328 0
Prg max-min : 1.0260303
 
Iteration Number = 67

DILUPBiCG:  Solving for Ux, Initial residual = 0.022005196, Final residual = 7.6788223e-07, No Iterations 3
DILUPBiCG:  Solving for Uy, Initial residual = 0.0093570023, Final residual = 5.169821e-06, No Iterations 3
DILUPBiCG:  Solving for Uz, Initial residual = 0.020651131, Final residual = 9.3791238e-06, No Iterations 2
DILUPBiCG:  Solving for h, Initial residual = 0.0044951954, Final residual = 1.9491142e-06, No Iterations 6
GAMG:  Solving for p_rgh, Initial residual = 0.012029218, Final residual = 1.0798975e-05, No Iterations 4
time step continuity errors : sum local = 5.2876706e-05, global = -1.5462227e-05, cumulative = 0.00068286243
ExecutionTime = 2.48 s  ClockTime = 2 s
Inflow      : 2.7419932e-05 [kg/s]
Outflow     : 2.7407036e-05 [kg/s]
EnergyInflow  : 8.1015534 [W]
EnergyOutflow : 8.1272175 [W]
rho max/avg/min : 1.2016458 1.1772345 1.1309965
T   max/avg/min : 311.99233 299.88052 293.6933
P   max/avg/min : 101324.91 101316.16 101307.4
Prg max/avg/min : 101325 101324.81 101323.97
U   max/avg/min : 0.13452897 0.058892288 0
Prg max-min : 1.031555
 
Iteration Number = 68

DILUPBiCG:  Solving for Ux, Initial residual = 0.022221412, Final residual = 9.466982e-07, No Iterations 3
DILUPBiCG:  Solving for Uy, Initial residual = 0.0090966028, Final residual = 5.7040745e-07, No Iterations 3
DILUPBiCG:  Solving for Uz, Initial residual = 0.018351132, Final residual = 7.7750447e-06, No Iterations 2
DILUPBiCG:  Solving for h, Initial residual = 0.0043002408, Final residual = 1.4557472e-06, No Iterations 6
GAMG:  Solving for p_rgh, Initial residual = 0.01120579, Final residual = 2.7741459e-06, No Iterations 5
time step continuity errors : sum local = 1.3460293e-05, global = -4.3118635e-06, cumulative = 0.00067855056
ExecutionTime = 2.52 s  ClockTime = 2 s
Inflow      : 2.8041063e-05 [kg/s]
Outflow     : 2.8037467e-05 [kg/s]
EnergyInflow  : 8.2850742 [W]
EnergyOutflow : 8.3138782 [W]
rho max/avg/min : 1.2016458 1.1770587 1.1305687
T   max/avg/min : 312.11038 299.92733 293.69294
P   max/avg/min : 101324.91 101316.16 101307.41
Prg max/avg/min : 101325 101324.81 101323.96
U   max/avg/min : 0.13879481 0.060380088 0
Prg max-min : 1.0371038
 
Iteration Number = 69

DILUPBiCG:  Solving for Ux, Initial residual = 0.020894352, Final residual = 1.2806791e-06, No Iterations 3
DILUPBiCG:  Solving for Uy, Initial residual = 0.0094746346, Final residual = 5.8875405e-07, No Iterations 3
DILUPBiCG:  Solving for Uz, Initial residual = 0.01637785, Final residual = 6.8435689e-06, No Iterations 2
DILUPBiCG:  Solving for h, Initial residual = 0.0041138486, Final residual = 3.9380165e-06, No Iterations 5
GAMG:  Solving for p_rgh, Initial residual = 0.010724711, Final residual = 3.6227814e-06, No Iterations 4
time step continuity errors : sum local = 1.7487455e-05, global = 5.4315375e-06, cumulative = 0.0006839821
ExecutionTime = 2.56 s  ClockTime = 3 s
Inflow      : 2.8636673e-05 [kg/s]
Outflow     : 2.8641203e-05 [kg/s]
EnergyInflow  : 8.4610545 [W]
EnergyOutflow : 8.4925826 [W]
rho max/avg/min : 1.2016458 1.1768872 1.1301473
T   max/avg/min : 312.22678 299.97305 293.69259
P   max/avg/min : 101324.91 101316.16 101307.4
Prg max/avg/min : 101325 101324.81 101323.95
U   max/avg/min : 0.14309189 0.061846829 0
Prg max-min : 1.044545
 
Iteration Number = 70

DILUPBiCG:  Solving for Ux, Initial residual = 0.020932624, Final residual = 1.1729753e-06, No Iterations 3
DILUPBiCG:  Solving for Uy, Initial residual = 0.0097457402, Final residual = 6.2351261e-07, No Iterations 3
DILUPBiCG:  Solving for Uz, Initial residual = 0.01670707, Final residual = 7.0992272e-06, No Iterations 2
DILUPBiCG:  Solving for h, Initial residual = 0.0039351149, Final residual = 3.1927867e-06, No Iterations 5
GAMG:  Solving for p_rgh, Initial residual = 0.010277859, Final residual = 9.6443182e-06, No Iterations 4
time step continuity errors : sum local = 4.640463e-05, global = -1.0383963e-05, cumulative = 0.00067359814
ExecutionTime = 2.6 s  ClockTime = 3 s
Inflow      : 2.9204496e-05 [kg/s]
Outflow     : 2.9195836e-05 [kg/s]
EnergyInflow  : 8.6288247 [W]
EnergyOutflow : 8.6567381 [W]
rho max/avg/min : 1.2016458 1.1767197 1.1297314
T   max/avg/min : 312.34171 300.01773 293.69225
P   max/avg/min : 101324.91 101316.16 101307.4
Prg max/avg/min : 101325 101324.81 101323.95
U   max/avg/min : 0.14739903 0.063292543 0
Prg max-min : 1.0498144
 
Iteration Number = 71

DILUPBiCG:  Solving for Ux, Initial residual = 0.020100778, Final residual = 1.0310339e-05, No Iterations 3
[...]
U   max/avg/min : 0.51967362 0.20515306 0
Prg max-min : 1.2821262
 
Iteration Number = 1983

DILUPBiCG:  Solving for Ux, Initial residual = 6.0172259e-05, Final residual = 4.5645873e-08, No Iterations 2
DILUPBiCG:  Solving for Uy, Initial residual = 0.013696434, Final residual = 4.9384044e-07, No Iterations 3
DILUPBiCG:  Solving for Uz, Initial residual = 0.00014878867, Final residual = 1.9942527e-09, No Iterations 3
DILUPBiCG:  Solving for h, Initial residual = 2.4441632e-06, Final residual = 4.0161423e-10, No Iterations 6
GAMG:  Solving for p_rgh, Initial residual = 1.4714567e-05, Final residual = 1.3179954e-08, No Iterations 5
time step continuity errors : sum local = 4.0358847e-08, global = 9.8755768e-10, cumulative = 0.00067801576
ExecutionTime = 75.12 s  ClockTime = 75 s
Inflow      : 9.6144542e-05 [kg/s]
Outflow     : 9.6144543e-05 [kg/s]
EnergyInflow  : 28.407078 [W]
EnergyOutflow : 28.460379 [W]
rho max/avg/min : 1.2016457 1.1743769 1.1138236
T   max/avg/min : 316.8026 300.68735 293.68538
P   max/avg/min : 101324.9 101316.15 101307.4
Prg max/avg/min : 101324.99 101324.77 101323.71
U   max/avg/min : 0.51967815 0.20516821 0
Prg max-min : 1.282124
 
Iteration Number = 1984

DILUPBiCG:  Solving for Ux, Initial residual = 5.9978649e-05, Final residual = 4.8774852e-08, No Iterations 2
DILUPBiCG:  Solving for Uy, Initial residual = 0.013232342, Final residual = 1.6877007e-06, No Iterations 3
DILUPBiCG:  Solving for Uz, Initial residual = 0.00014873048, Final residual = 1.9925145e-09, No Iterations 3
DILUPBiCG:  Solving for h, Initial residual = 2.4428168e-06, Final residual = 7.6550518e-10, No Iterations 6
GAMG:  Solving for p_rgh, Initial residual = 1.4742183e-05, Final residual = 1.2389006e-08, No Iterations 5
time step continuity errors : sum local = 3.8682877e-08, global = -8.0490813e-09, cumulative = 0.00067800771
ExecutionTime = 75.17 s  ClockTime = 75 s
Inflow      : 9.6164152e-05 [kg/s]
Outflow     : 9.6164145e-05 [kg/s]
EnergyInflow  : 28.412872 [W]
EnergyOutflow : 28.466171 [W]
rho max/avg/min : 1.2016457 1.1743772 1.1138237
T   max/avg/min : 316.80256 300.68728 293.68538
P   max/avg/min : 101324.9 101316.15 101307.4
Prg max/avg/min : 101324.99 101324.77 101323.71
U   max/avg/min : 0.51968268 0.20518336 0
Prg max-min : 1.2821218
 
Iteration Number = 1985

DILUPBiCG:  Solving for Ux, Initial residual = 6.0059896e-05, Final residual = 4.7026236e-08, No Iterations 2
DILUPBiCG:  Solving for Uy, Initial residual = 0.014008155, Final residual = 1.1175377e-05, No Iterations 2
DILUPBiCG:  Solving for Uz, Initial residual = 0.00014868232, Final residual = 1.99082e-09, No Iterations 3
DILUPBiCG:  Solving for h, Initial residual = 2.4414401e-06, Final residual = 1.6711419e-10, No Iterations 8
GAMG:  Solving for p_rgh, Initial residual = 1.4722099e-05, Final residual = 1.1925081e-08, No Iterations 5
time step continuity errors : sum local = 3.6769067e-08, global = -6.5274588e-10, cumulative = 0.00067800706
ExecutionTime = 75.21 s  ClockTime = 75 s
Inflow      : 9.6183736e-05 [kg/s]
Outflow     : 9.6183735e-05 [kg/s]
EnergyInflow  : 28.418658 [W]
EnergyOutflow : 28.471959 [W]
rho max/avg/min : 1.2016457 1.1743774 1.1138239
T   max/avg/min : 316.80252 300.6872 293.68538
P   max/avg/min : 101324.9 101316.15 101307.4
Prg max/avg/min : 101324.99 101324.77 101323.71
U   max/avg/min : 0.51968721 0.2051985 0
Prg max-min : 1.2821196
 
Iteration Number = 1986

DILUPBiCG:  Solving for Ux, Initial residual = 6.0137063e-05, Final residual = 4.6597132e-08, No Iterations 2
DILUPBiCG:  Solving for Uy, Initial residual = 0.014323978, Final residual = 1.2709165e-05, No Iterations 2
DILUPBiCG:  Solving for Uz, Initial residual = 0.00014856313, Final residual = 1.9908137e-09, No Iterations 3
DILUPBiCG:  Solving for h, Initial residual = 2.4401437e-06, Final residual = 7.3663026e-10, No Iterations 6
GAMG:  Solving for p_rgh, Initial residual = 1.5352709e-05, Final residual = 1.4658121e-08, No Iterations 4
time step continuity errors : sum local = 4.4703386e-08, global = -1.2247293e-08, cumulative = 0.00067799481
ExecutionTime = 75.25 s  ClockTime = 75 s
Inflow      : 9.620333e-05 [kg/s]
Outflow     : 9.620332e-05 [kg/s]
EnergyInflow  : 28.424448 [W]
EnergyOutflow : 28.477745 [W]
rho max/avg/min : 1.2016457 1.1743777 1.113824
T   max/avg/min : 316.80248 300.68713 293.68538
P   max/avg/min : 101324.9 101316.15 101307.4
Prg max/avg/min : 101324.99 101324.77 101323.71
U   max/avg/min : 0.51969174 0.20521364 0
Prg max-min : 1.2821174
 
Iteration Number = 1987

DILUPBiCG:  Solving for Ux, Initial residual = 6.2961214e-05, Final residual = 5.4984499e-08, No Iterations 2
DILUPBiCG:  Solving for Uy, Initial residual = 0.014183812, Final residual = 4.5569813e-07, No Iterations 3
DILUPBiCG:  Solving for Uz, Initial residual = 0.00014873342, Final residual = 1.9916751e-09, No Iterations 3
DILUPBiCG:  Solving for h, Initial residual = 2.4389299e-06, Final residual = 5.5481246e-10, No Iterations 6
GAMG:  Solving for p_rgh, Initial residual = 1.5246995e-05, Final residual = 1.1928301e-08, No Iterations 5
time step continuity errors : sum local = 3.7121433e-08, global = -1.5507945e-09, cumulative = 0.00067799326
ExecutionTime = 75.3 s  ClockTime = 75 s
Inflow      : 9.6222898e-05 [kg/s]
Outflow     : 9.6222896e-05 [kg/s]
EnergyInflow  : 28.430229 [W]
EnergyOutflow : 28.483529 [W]
rho max/avg/min : 1.2016457 1.174378 1.1138242
T   max/avg/min : 316.80243 300.68705 293.68538
P   max/avg/min : 101324.9 101316.15 101307.4
Prg max/avg/min : 101324.99 101324.77 101323.71
U   max/avg/min : 0.51969627 0.20522877 0
Prg max-min : 1.2821152
 
Iteration Number = 1988

DILUPBiCG:  Solving for Ux, Initial residual = 6.305767e-05, Final residual = 6.9936331e-11, No Iterations 4
DILUPBiCG:  Solving for Uy, Initial residual = 0.0138908, Final residual = 7.3803267e-07, No Iterations 3
DILUPBiCG:  Solving for Uz, Initial residual = 0.00014837214, Final residual = 1.9875063e-09, No Iterations 3
DILUPBiCG:  Solving for h, Initial residual = 2.4373988e-06, Final residual = 1.2733191e-09, No Iterations 6
GAMG:  Solving for p_rgh, Initial residual = 1.5039322e-05, Final residual = 1.1212785e-08, No Iterations 5
time step continuity errors : sum local = 3.6081329e-08, global = 1.640355e-09, cumulative = 0.0006779949
ExecutionTime = 75.34 s  ClockTime = 75 s
Inflow      : 9.6242459e-05 [kg/s]
Outflow     : 9.624246e-05 [kg/s]
EnergyInflow  : 28.436009 [W]
EnergyOutflow : 28.48931 [W]
rho max/avg/min : 1.2016457 1.1743783 1.1138243
T   max/avg/min : 316.80239 300.68698 293.68538
P   max/avg/min : 101324.9 101316.15 101307.4
Prg max/avg/min : 101324.99 101324.77 101323.71
U   max/avg/min : 0.5197008 0.20524389 0
Prg max-min : 1.282113
 
Iteration Number = 1989

DILUPBiCG:  Solving for Ux, Initial residual = 5.9497235e-05, Final residual = 4.527869e-08, No Iterations 2
DILUPBiCG:  Solving for Uy, Initial residual = 0.013891751, Final residual = 6.1998905e-07, No Iterations 3
DILUPBiCG:  Solving for Uz, Initial residual = 0.00014864864, Final residual = 1.9905794e-09, No Iterations 3
DILUPBiCG:  Solving for h, Initial residual = 2.4360744e-06, Final residual = 1.3694391e-09, No Iterations 6
GAMG:  Solving for p_rgh, Initial residual = 1.4865367e-05, Final residual = 1.4121647e-08, No Iterations 4
time step continuity errors : sum local = 4.0873778e-08, global = -2.5367405e-09, cumulative = 0.00067799237
ExecutionTime = 75.39 s  ClockTime = 76 s
Inflow      : 9.6262024e-05 [kg/s]
Outflow     : 9.6262022e-05 [kg/s]
EnergyInflow  : 28.441789 [W]
EnergyOutflow : 28.495089 [W]
rho max/avg/min : 1.2016457 1.1743786 1.1138245
T   max/avg/min : 316.80235 300.6869 293.68538
P   max/avg/min : 101324.9 101316.15 101307.4
Prg max/avg/min : 101324.99 101324.77 101323.71
U   max/avg/min : 0.51970533 0.20525901 0
Prg max-min : 1.2821108
 
Iteration Number = 1990

DILUPBiCG:  Solving for Ux, Initial residual = 6.1693413e-05, Final residual = 5.7335263e-08, No Iterations 2
DILUPBiCG:  Solving for Uy, Initial residual = 0.013911082, Final residual = 8.3167872e-07, No Iterations 3
DILUPBiCG:  Solving for Uz, Initial residual = 0.00014844392, Final residual = 1.987357e-09, No Iterations 3
DILUPBiCG:  Solving for h, Initial residual = 2.4347828e-06, Final residual = 4.7238911e-10, No Iterations 6
GAMG:  Solving for p_rgh, Initial residual = 1.4819952e-05, Final residual = 1.3215452e-08, No Iterations 5
time step continuity errors : sum local = 4.1007224e-08, global = -1.8311504e-09, cumulative = 0.00067799054
ExecutionTime = 75.43 s  ClockTime = 76 s
Inflow      : 9.6281571e-05 [kg/s]
Outflow     : 9.6281569e-05 [kg/s]
EnergyInflow  : 28.447565 [W]
EnergyOutflow : 28.500865 [W]
rho max/avg/min : 1.2016457 1.1743789 1.1138246
T   max/avg/min : 316.80231 300.68683 293.68538
P   max/avg/min : 101324.9 101316.15 101307.4
Prg max/avg/min : 101324.99 101324.77 101323.71
U   max/avg/min : 0.51970986 0.20527412 0
Prg max-min : 1.2821086
 
Iteration Number = 1991

DILUPBiCG:  Solving for Ux, Initial residual = 5.8973713e-05, Final residual = 4.6483859e-08, No Iterations 2
DILUPBiCG:  Solving for Uy, Initial residual = 0.013795622, Final residual = 3.6579005e-08, No Iterations 4
DILUPBiCG:  Solving for Uz, Initial residual = 0.0001484737, Final residual = 1.9881348e-09, No Iterations 3
DILUPBiCG:  Solving for h, Initial residual = 2.4333809e-06, Final residual = 9.957846e-10, No Iterations 6
GAMG:  Solving for p_rgh, Initial residual = 1.4707999e-05, Final residual = 1.2237264e-08, No Iterations 5
time step continuity errors : sum local = 3.7494449e-08, global = -5.4808618e-10, cumulative = 0.00067798999
ExecutionTime = 75.48 s  ClockTime = 76 s
Inflow      : 9.6301113e-05 [kg/s]
Outflow     : 9.6301113e-05 [kg/s]
EnergyInflow  : 28.453339 [W]
EnergyOutflow : 28.506639 [W]
rho max/avg/min : 1.2016457 1.1743792 1.1138247
T   max/avg/min : 316.80227 300.68675 293.68538
P   max/avg/min : 101324.9 101316.15 101307.4
Prg max/avg/min : 101324.99 101324.77 101323.71
U   max/avg/min : 0.51971438 0.20528923 0
Prg max-min : 1.2821064
 
Iteration Number = 1992

DILUPBiCG:  Solving for Ux, Initial residual = 6.0988601e-05, Final residual = 4.8607803e-08, No Iterations 2
DILUPBiCG:  Solving for Uy, Initial residual = 0.015163839, Final residual = 4.9755291e-07, No Iterations 3
DILUPBiCG:  Solving for Uz, Initial residual = 0.0001484278, Final residual = 1.9868388e-09, No Iterations 3
DILUPBiCG:  Solving for h, Initial residual = 2.4320577e-06, Final residual = 2.0137756e-09, No Iterations 5
GAMG:  Solving for p_rgh, Initial residual = 1.4630974e-05, Final residual = 1.2824165e-08, No Iterations 5
time step continuity errors : sum local = 3.9816564e-08, global = -3.3496108e-09, cumulative = 0.00067798664
ExecutionTime = 75.54 s  ClockTime = 76 s
Inflow      : 9.6320648e-05 [kg/s]
Outflow     : 9.6320645e-05 [kg/s]
EnergyInflow  : 28.459111 [W]
EnergyOutflow : 28.51241 [W]
rho max/avg/min : 1.2016457 1.1743794 1.1138249
T   max/avg/min : 316.80223 300.68668 293.68538
P   max/avg/min : 101324.9 101316.15 101307.4
Prg max/avg/min : 101324.99 101324.77 101323.71
U   max/avg/min : 0.5197189 0.20530433 0
Prg max-min : 1.2821042
 
Iteration Number = 1993

DILUPBiCG:  Solving for Ux, Initial residual = 5.8975098e-05, Final residual = 4.8001135e-08, No Iterations 2
DILUPBiCG:  Solving for Uy, Initial residual = 0.014985357, Final residual = 1.4423268e-06, No Iterations 3
DILUPBiCG:  Solving for Uz, Initial residual = 0.00014839241, Final residual = 1.9865579e-09, No Iterations 3
DILUPBiCG:  Solving for h, Initial residual = 2.4307534e-06, Final residual = 5.9365123e-10, No Iterations 6
GAMG:  Solving for p_rgh, Initial residual = 1.4685675e-05, Final residual = 1.2702361e-08, No Iterations 5
time step continuity errors : sum local = 3.8771184e-08, global = -4.080014e-09, cumulative = 0.00067798256
ExecutionTime = 75.6 s  ClockTime = 76 s
Inflow      : 9.6340173e-05 [kg/s]
Outflow     : 9.6340169e-05 [kg/s]
EnergyInflow  : 28.464879 [W]
EnergyOutflow : 28.518179 [W]
rho max/avg/min : 1.2016457 1.1743797 1.113825
T   max/avg/min : 316.80219 300.6866 293.68538
P   max/avg/min : 101324.9 101316.15 101307.4
Prg max/avg/min : 101324.99 101324.77 101323.71
U   max/avg/min : 0.51972343 0.20531943 0
Prg max-min : 1.282102
 
Iteration Number = 1994

DILUPBiCG:  Solving for Ux, Initial residual = 6.0613053e-05, Final residual = 4.7070768e-08, No Iterations 2
DILUPBiCG:  Solving for Uy, Initial residual = 0.014559804, Final residual = 8.0419625e-07, No Iterations 3
DILUPBiCG:  Solving for Uz, Initial residual = 0.00014833467, Final residual = 1.9855363e-09, No Iterations 3
DILUPBiCG:  Solving for h, Initial residual = 2.4294298e-06, Final residual = 6.3840687e-10, No Iterations 6
GAMG:  Solving for p_rgh, Initial residual = 1.4583261e-05, Final residual = 1.2451845e-08, No Iterations 5
time step continuity errors : sum local = 3.8691293e-08, global = -3.9739415e-09, cumulative = 0.00067797858
ExecutionTime = 75.65 s  ClockTime = 76 s
Inflow      : 9.635969e-05 [kg/s]
Outflow     : 9.6359686e-05 [kg/s]
EnergyInflow  : 28.470646 [W]
EnergyOutflow : 28.523945 [W]
rho max/avg/min : 1.2016457 1.17438 1.1138252
T   max/avg/min : 316.80215 300.68653 293.68538
P   max/avg/min : 101324.9 101316.15 101307.4
Prg max/avg/min : 101324.99 101324.77 101323.71
U   max/avg/min : 0.51972795 0.20533452 0
Prg max-min : 1.2820999
 
Iteration Number = 1995

DILUPBiCG:  Solving for Ux, Initial residual = 5.9343344e-05, Final residual = 4.7987761e-08, No Iterations 2
DILUPBiCG:  Solving for Uy, Initial residual = 0.01454655, Final residual = 4.8189741e-07, No Iterations 3
DILUPBiCG:  Solving for Uz, Initial residual = 0.00014835183, Final residual = 1.9849713e-09, No Iterations 3
DILUPBiCG:  Solving for h, Initial residual = 2.4280924e-06, Final residual = 8.6845873e-11, No Iterations 8
GAMG:  Solving for p_rgh, Initial residual = 1.4637195e-05, Final residual = 1.1239222e-08, No Iterations 5
time step continuity errors : sum local = 3.6169127e-08, global = -4.2055531e-09, cumulative = 0.00067797438
ExecutionTime = 75.71 s  ClockTime = 76 s
Inflow      : 9.6379196e-05 [kg/s]
Outflow     : 9.6379193e-05 [kg/s]
EnergyInflow  : 28.476409 [W]
EnergyOutflow : 28.529709 [W]
rho max/avg/min : 1.2016457 1.1743803 1.1138253
T   max/avg/min : 316.80211 300.68645 293.68538
P   max/avg/min : 101324.9 101316.15 101307.4
Prg max/avg/min : 101324.99 101324.77 101323.71
U   max/avg/min : 0.51973247 0.2053496 0
Prg max-min : 1.2820977
 
Iteration Number = 1996

DILUPBiCG:  Solving for Ux, Initial residual = 6.0196495e-05, Final residual = 4.514493e-08, No Iterations 2
DILUPBiCG:  Solving for Uy, Initial residual = 0.015024944, Final residual = 1.1274025e-05, No Iterations 2
DILUPBiCG:  Solving for Uz, Initial residual = 0.00014822791, Final residual = 1.9844624e-09, No Iterations 3
DILUPBiCG:  Solving for h, Initial residual = 2.4267574e-06, Final residual = 5.911514e-10, No Iterations 6
GAMG:  Solving for p_rgh, Initial residual = 1.4589449e-05, Final residual = 1.2219505e-08, No Iterations 5
time step continuity errors : sum local = 3.8887183e-08, global = -3.979213e-09, cumulative = 0.0006779704
ExecutionTime = 75.76 s  ClockTime = 76 s
Inflow      : 9.6398696e-05 [kg/s]
Outflow     : 9.6398693e-05 [kg/s]
EnergyInflow  : 28.482171 [W]
EnergyOutflow : 28.53547 [W]
rho max/avg/min : 1.2016457 1.1743806 1.1138255
T   max/avg/min : 316.80206 300.68638 293.68538
P   max/avg/min : 101324.9 101316.15 101307.4
Prg max/avg/min : 101324.99 101324.77 101323.71
U   max/avg/min : 0.51973699 0.20536468 0
Prg max-min : 1.2820955
 
Iteration Number = 1997

DILUPBiCG:  Solving for Ux, Initial residual = 5.9590676e-05, Final residual = 4.6762631e-08, No Iterations 2
DILUPBiCG:  Solving for Uy, Initial residual = 0.013968804, Final residual = 4.9465406e-07, No Iterations 3
DILUPBiCG:  Solving for Uz, Initial residual = 0.00014830214, Final residual = 1.9838954e-09, No Iterations 3
DILUPBiCG:  Solving for h, Initial residual = 2.4254785e-06, Final residual = 5.4303367e-10, No Iterations 6
GAMG:  Solving for p_rgh, Initial residual = 1.4575015e-05, Final residual = 1.2141347e-08, No Iterations 5
time step continuity errors : sum local = 3.7787901e-08, global = -3.8906028e-09, cumulative = 0.00067796651
ExecutionTime = 75.8 s  ClockTime = 76 s
Inflow      : 9.6418186e-05 [kg/s]
Outflow     : 9.6418183e-05 [kg/s]
EnergyInflow  : 28.487929 [W]
EnergyOutflow : 28.541229 [W]
rho max/avg/min : 1.2016457 1.1743809 1.1138256
T   max/avg/min : 316.80202 300.68631 293.68538
P   max/avg/min : 101324.9 101316.15 101307.4
Prg max/avg/min : 101324.99 101324.77 101323.71
U   max/avg/min : 0.51974151 0.20537975 0
Prg max-min : 1.2820933
 
Iteration Number = 1998

DILUPBiCG:  Solving for Ux, Initial residual = 6.0015643e-05, Final residual = 4.634526e-08, No Iterations 2
DILUPBiCG:  Solving for Uy, Initial residual = 0.014597616, Final residual = 9.6775113e-07, No Iterations 3
DILUPBiCG:  Solving for Uz, Initial residual = 0.00014816063, Final residual = 1.9831802e-09, No Iterations 3
DILUPBiCG:  Solving for h, Initial residual = 2.4240558e-06, Final residual = 1.5216326e-09, No Iterations 6
GAMG:  Solving for p_rgh, Initial residual = 1.4571754e-05, Final residual = 1.1831825e-08, No Iterations 5
time step continuity errors : sum local = 3.6687925e-08, global = -3.9810447e-09, cumulative = 0.00067796253
ExecutionTime = 75.84 s  ClockTime = 76 s
Inflow      : 9.6437668e-05 [kg/s]
Outflow     : 9.6437665e-05 [kg/s]
EnergyInflow  : 28.493686 [W]
EnergyOutflow : 28.546985 [W]
rho max/avg/min : 1.2016457 1.1743812 1.1138258
T   max/avg/min : 316.80198 300.68623 293.68538
P   max/avg/min : 101324.9 101316.15 101307.4
Prg max/avg/min : 101324.99 101324.77 101323.71
U   max/avg/min : 0.51974602 0.20539481 0
Prg max-min : 1.2820911
 
Iteration Number = 1999

DILUPBiCG:  Solving for Ux, Initial residual = 5.9624891e-05, Final residual = 4.6918023e-08, No Iterations 2
DILUPBiCG:  Solving for Uy, Initial residual = 0.015081942, Final residual = 1.296587e-05, No Iterations 2
DILUPBiCG:  Solving for Uz, Initial residual = 0.00014821512, Final residual = 1.9820954e-09, No Iterations 3
DILUPBiCG:  Solving for h, Initial residual = 2.4227865e-06, Final residual = 1.548263e-09, No Iterations 6
GAMG:  Solving for p_rgh, Initial residual = 1.4550897e-05, Final residual = 1.2124313e-08, No Iterations 5
time step continuity errors : sum local = 3.8572636e-08, global = -3.3691089e-09, cumulative = 0.00067795916
ExecutionTime = 75.88 s  ClockTime = 76 s
Inflow      : 9.6457142e-05 [kg/s]
Outflow     : 9.6457139e-05 [kg/s]
EnergyInflow  : 28.499439 [W]
EnergyOutflow : 28.552739 [W]
rho max/avg/min : 1.2016457 1.1743815 1.1138259
T   max/avg/min : 316.80194 300.68616 293.68538
P   max/avg/min : 101324.9 101316.15 101307.4
Prg max/avg/min : 101324.99 101324.77 101323.71
U   max/avg/min : 0.51975054 0.20540987 0
Prg max-min : 1.2820889
 
Iteration Number = 2000

DILUPBiCG:  Solving for Ux, Initial residual = 5.995921e-05, Final residual = 4.5821568e-08, No Iterations 2
DILUPBiCG:  Solving for Uy, Initial residual = 0.013978372, Final residual = 7.2036538e-07, No Iterations 3
DILUPBiCG:  Solving for Uz, Initial residual = 0.00014812164, Final residual = 1.9821691e-09, No Iterations 3
DILUPBiCG:  Solving for h, Initial residual = 2.4214128e-06, Final residual = 6.0654574e-10, No Iterations 6
GAMG:  Solving for p_rgh, Initial residual = 1.4547646e-05, Final residual = 1.4057449e-08, No Iterations 4
time step continuity errors : sum local = 4.1874169e-08, global = 1.6856232e-09, cumulative = 0.00067796084
ExecutionTime = 75.97 s  ClockTime = 76 s
Inflow      : 9.6476602e-05 [kg/s]
Outflow     : 9.6476603e-05 [kg/s]
EnergyInflow  : 28.505189 [W]
EnergyOutflow : 28.55849 [W]
rho max/avg/min : 1.2016457 1.1743817 1.113826
T   max/avg/min : 316.8019 300.68608 293.68538
P   max/avg/min : 101324.9 101316.15 101307.4
Prg max/avg/min : 101324.99 101324.77 101323.71
U   max/avg/min : 0.51975505 0.20542493 0
Prg max-min : 1.2820867
 
End

