/*---------------------------------------------------------------------------*\
| =========                 |                                                 |
| \\      /  F ield         | OpenFOAM: The Open Source CFD Toolbox           |
|  \\    /   O peration     | Version:  4.0                                   |
|   \\  /    A nd           | Web:      www.OpenFOAM.org                      |
|    \\/     M anipulation  |                                                 |
\*---------------------------------------------------------------------------*/
Build  : 4.0-665f1db4c1f1
Exec   : pupoBuoyantSimpleFoam
Date   : Sep 29 2016
Time   : 21:24:52
Host   : "FAB2000"
PID    : 8314
Case   : /home/pedro/Documents/ThesisProject/OpenFoam/validation1rod/NoRad
nProcs : 1
sigFpe : Enabling floating point exception trapping (FOAM_SIGFPE).
fileModificationChecking : Monitoring run-time modified files using timeStampMaster
allowSystemOperations : Allowing user-supplied system call operations

// * * * * * * * * * * * * * * * * * * * * * * * * * * * * * * * * * * * * * //
Create time

Create mesh for time = 0


SIMPLE: convergence criteria
    field p_rgh	 tolerance 1e-06
    field Uz	 tolerance 1e-06
    field h	 tolerance 1e-06

Reading thermophysical properties

Selecting thermodynamics package 
{
    type            heRhoThermo;
    mixture         pureMixture;
    transport       sutherland;
    thermo          hConst;
    equationOfState perfectGas;
    specie          specie;
    energy          sensibleEnthalpy;
}


Reading g

Reading hRef
Calculating field g.h

Selecting turbulence model type laminar
No MRF models present

Selecting radiationModel none
 
rho max/avg/min : 1.2016452 1.2015414 1.2014377
T   max/avg/min : 293.7 293.7 293.7
P   max/avg/min : 101324.91 101316.16 101307.41
Prg max/avg/min : 101325 101325 101325
U   max/avg/min : 0 0 0
 
sngrad(rho) :-3.7237621e-12 -1.554299e-09 -1.3248041e-08
 
No finite volume options present


Starting Iteration loop

Iteration Number = 1

DILUPBiCG:  Solving for Ux, Initial residual = 2.3034354e-10, Final residual = 2.3034354e-10, No Iterations 0
DILUPBiCG:  Solving for Uy, Initial residual = 4.8698736e-07, Final residual = 2.590422e-09, No Iterations 1
DILUPBiCG:  Solving for Uz, Initial residual = 1, Final residual = 0.0001017747, No Iterations 2
DILUPBiCG:  Solving for h, Initial residual = 1, Final residual = 0.00045973819, No Iterations 1
GAMG:  Solving for p_rgh, Initial residual = 0.8237985, Final residual = 0.00062326392, No Iterations 3
time step continuity errors : sum local = 0.00015326059, global = -6.5210992e-05, cumulative = -6.5210992e-05
ExecutionTime = 0.1 s  ClockTime = 0 s
Inflow      : -5.9571336e-07 [kg/s]
Outflow     : -6.5009929e-07 [kg/s]
EnergyInflow  : -0.17601078 [W]
EnergyOutflow : -0.19207977 [W]
EnergyBalance : -0.016068986 [W]
rho max/avg/min : 1.2016452 1.1953618 1.0955956
T   max/avg/min : 322.07345 295.29785 293.7
P   max/avg/min : 101324.91 101316.16 101307.41
Prg max/avg/min : 101325 101324.96 101323.45
U   max/avg/min : 0.0082279314 -0.00020439714 -0.0017955823
Prg max-min : 1.5543734
 
sngrad(rho) :3.7596264e-07 2.8358932e-08 -9.7608537e-09
 
Iteration Number = 2

DILUPBiCG:  Solving for Ux, Initial residual = 0.32472834, Final residual = 5.3643745e-06, No Iterations 2
DILUPBiCG:  Solving for Uy, Initial residual = 0.00025861964, Final residual = 2.4962147e-08, No Iterations 2
DILUPBiCG:  Solving for Uz, Initial residual = 0.34709397, Final residual = 1.4996371e-05, No Iterations 2
DILUPBiCG:  Solving for h, Initial residual = 0.24690705, Final residual = 6.3502897e-05, No Iterations 1
GAMG:  Solving for p_rgh, Initial residual = 0.02679206, Final residual = 2.5410358e-05, No Iterations 3
time step continuity errors : sum local = 0.00010592077, global = 5.3866044e-05, cumulative = -1.1344948e-05
ExecutionTime = 0.14 s  ClockTime = 0 s
Inflow      : -1.1423091e-06 [kg/s]
Outflow     : -1.0973849e-06 [kg/s]
EnergyInflow  : -0.33750917 [W]
EnergyOutflow : -0.32418168 [W]
EnergyBalance : 0.013327489 [W]
rho max/avg/min : 1.2016452 1.1899284 1.0491442
T   max/avg/min : 336.33417 296.78077 293.70002
P   max/avg/min : 101324.91 101316.16 101307.41
Prg max/avg/min : 101325 101324.91 101322.77
U   max/avg/min : 0.016239536 -0.00036362885 -0.0026611575
Prg max-min : 2.2278125
 
sngrad(rho) :1.9186031e-07 3.1731111e-08 -8.7480972e-09
 
Iteration Number = 3

DILUPBiCG:  Solving for Ux, Initial residual = 0.1583702, Final residual = 7.7385294e-06, No Iterations 2
DILUPBiCG:  Solving for Uy, Initial residual = 0.00037956592, Final residual = 6.2357504e-08, No Iterations 2
DILUPBiCG:  Solving for Uz, Initial residual = 0.12096319, Final residual = 5.84145e-06, No Iterations 2
DILUPBiCG:  Solving for h, Initial residual = 0.15223291, Final residual = 5.1495235e-05, No Iterations 1
GAMG:  Solving for p_rgh, Initial residual = 0.014015095, Final residual = 7.2013985e-06, No Iterations 3
time step continuity errors : sum local = 5.2923959e-05, global = 2.0487528e-05, cumulative = 9.1425794e-06
ExecutionTime = 0.17 s  ClockTime = 0 s
Inflow      : -1.2098372e-06 [kg/s]
Outflow     : -1.1927507e-06 [kg/s]
EnergyInflow  : -0.35746118 [W]
EnergyOutflow : -0.35226854 [W]
EnergyBalance : 0.0051926341 [W]
rho max/avg/min : 1.201645 1.1849166 1.0208058
T   max/avg/min : 345.672 298.18396 293.70004
P   max/avg/min : 101324.91 101316.16 101307.4
Prg max/avg/min : 101325 101324.88 101322.35
U   max/avg/min : 0.023130217 -0.00034164884 -0.002851046
Prg max-min : 2.6467612
 
sngrad(rho) :1.5843247e-07 3.569813e-08 -9.3835547e-09
 
Iteration Number = 4

DILUPBiCG:  Solving for Ux, Initial residual = 0.16255022, Final residual = 6.2206404e-06, No Iterations 2
DILUPBiCG:  Solving for Uy, Initial residual = 0.00039748308, Final residual = 5.9962255e-08, No Iterations 2
DILUPBiCG:  Solving for Uz, Initial residual = 0.079851334, Final residual = 1.1856528e-06, No Iterations 2
DILUPBiCG:  Solving for h, Initial residual = 0.1095417, Final residual = 4.6779866e-05, No Iterations 1
GAMG:  Solving for p_rgh, Initial residual = 0.00874771, Final residual = 2.5300813e-06, No Iterations 3
time step continuity errors : sum local = 2.5936836e-05, global = 2.2824316e-05, cumulative = 3.1966896e-05
ExecutionTime = 0.2 s  ClockTime = 0 s
Inflow      : -1.2194683e-06 [kg/s]
Outflow     : -1.2004328e-06 [kg/s]
EnergyInflow  : -0.36030678 [W]
EnergyOutflow : -0.35439995 [W]
EnergyBalance : 0.005906823 [W]
rho max/avg/min : 1.2016448 1.1801043 0.99911371
T   max/avg/min : 353.17784 299.55807 293.70006
P   max/avg/min : 101324.91 101316.16 101307.41
Prg max/avg/min : 101325 101324.84 101322.04
U   max/avg/min : 0.029566386 -0.00025254843 -0.0029650727
Prg max-min : 2.9595052
 
sngrad(rho) :1.4783503e-07 4.0048489e-08 -9.5509426e-09
 
Iteration Number = 5

DILUPBiCG:  Solving for Ux, Initial residual = 0.091264768, Final residual = 4.517901e-06, No Iterations 2
DILUPBiCG:  Solving for Uy, Initial residual = 0.00041005629, Final residual = 5.6526014e-08, No Iterations 2
DILUPBiCG:  Solving for Uz, Initial residual = 0.089113149, Final residual = 1.5165988e-06, No Iterations 2
DILUPBiCG:  Solving for h, Initial residual = 0.086271002, Final residual = 4.760214e-05, No Iterations 1
GAMG:  Solving for p_rgh, Initial residual = 0.0064922359, Final residual = 3.5057003e-06, No Iterations 3
time step continuity errors : sum local = 4.5774603e-05, global = 2.3028113e-06, cumulative = 3.4269707e-05
ExecutionTime = 0.23 s  ClockTime = 0 s
Inflow      : -1.1484073e-06 [kg/s]
Outflow     : -1.1464867e-06 [kg/s]
EnergyInflow  : -0.33931094 [W]
EnergyOutflow : -0.33826235 [W]
EnergyBalance : 0.0010485894 [W]
rho max/avg/min : 1.2016445 1.1754266 0.98123735
T   max/avg/min : 359.61357 300.91576 293.70007
P   max/avg/min : 101324.91 101316.16 101307.4
Prg max/avg/min : 101325 101324.81 101321.78
U   max/avg/min : 0.036331914 -0.00010072311 -0.0029627491
Prg max-min : 3.2212836
 
sngrad(rho) :1.4511907e-07 4.3587487e-08 -9.5984257e-09
 
Iteration Number = 6

DILUPBiCG:  Solving for Ux, Initial residual = 0.08408598, Final residual = 3.4427198e-06, No Iterations 2
DILUPBiCG:  Solving for Uy, Initial residual = 0.00040442097, Final residual = 5.0683336e-08, No Iterations 2
DILUPBiCG:  Solving for Uz, Initial residual = 0.10678871, Final residual = 7.4419355e-07, No Iterations 2
DILUPBiCG:  Solving for h, Initial residual = 0.071420881, Final residual = 5.1516723e-05, No Iterations 1
GAMG:  Solving for p_rgh, Initial residual = 0.0053317276, Final residual = 4.2583433e-06, No Iterations 3
time step continuity errors : sum local = 6.7958042e-05, global = 3.7179317e-05, cumulative = 7.1449024e-05
ExecutionTime = 0.26 s  ClockTime = 0 s
Inflow      : -1.0822807e-06 [kg/s]
Outflow     : -1.0512732e-06 [kg/s]
EnergyInflow  : -0.31977305 [W]
EnergyOutflow : -0.30986181 [W]
EnergyBalance : 0.0099112401 [W]
rho max/avg/min : 1.2016441 1.1708591 0.96601176
T   max/avg/min : 365.28385 302.26018 293.70007
P   max/avg/min : 101324.91 101316.16 101307.4
Prg max/avg/min : 101325 101324.77 101321.56
U   max/avg/min : 0.043846917 0.00010902848 -0.0028678068
Prg max-min : 3.4400074
 
sngrad(rho) :1.4445278e-07 4.5707152e-08 -9.6312834e-09
 
Iteration Number = 7

DILUPBiCG:  Solving for Ux, Initial residual = 0.060227919, Final residual = 2.6085529e-06, No Iterations 2
DILUPBiCG:  Solving for Uy, Initial residual = 0.00046609695, Final residual = 4.4631562e-08, No Iterations 2
DILUPBiCG:  Solving for Uz, Initial residual = 0.10985023, Final residual = 6.5859674e-07, No Iterations 2
DILUPBiCG:  Solving for h, Initial residual = 0.061091465, Final residual = 5.7667134e-05, No Iterations 1
GAMG:  Solving for p_rgh, Initial residual = 0.0046598467, Final residual = 2.9705949e-06, No Iterations 3
time step continuity errors : sum local = 5.5952025e-05, global = 9.5606959e-06, cumulative = 8.100972e-05
ExecutionTime = 0.3 s  ClockTime = 1 s
Inflow      : -9.4285576e-07 [kg/s]
Outflow     : -9.3488215e-07 [kg/s]
EnergyInflow  : -0.27857824 [W]
EnergyOutflow : -0.27513158 [W]
EnergyBalance : 0.0034466533 [W]
rho max/avg/min : 1.2016436 1.1663881 0.95275134
T   max/avg/min : 370.37122 303.59251 293.70007
P   max/avg/min : 101324.91 101316.16 101307.4
Prg max/avg/min : 101325 101324.74 101321.37
U   max/avg/min : 0.052044923 0.0003895021 -0.0027326405
Prg max-min : 3.6317612
 
sngrad(rho) :1.4432178e-07 4.6155686e-08 -9.6527235e-09
 
Iteration Number = 8

DILUPBiCG:  Solving for Ux, Initial residual = 0.050086457, Final residual = 1.8742366e-06, No Iterations 2
DILUPBiCG:  Solving for Uy, Initial residual = 0.00045392807, Final residual = 4.0830716e-08, No Iterations 2
DILUPBiCG:  Solving for Uz, Initial residual = 0.12836008, Final residual = 1.1940376e-06, No Iterations 2
DILUPBiCG:  Solving for h, Initial residual = 0.053466243, Final residual = 1.6023587e-06, No Iterations 3
GAMG:  Solving for p_rgh, Initial residual = 0.0042586915, Final residual = 1.354725e-06, No Iterations 4
time step continuity errors : sum local = 2.9526867e-05, global = 1.2160579e-05, cumulative = 9.3170299e-05
ExecutionTime = 0.33 s  ClockTime = 1 s
Inflow      : -8.1044131e-07 [kg/s]
Outflow     : -8.0029939e-07 [kg/s]
EnergyInflow  : -0.23945477 [W]
EnergyOutflow : -0.23495662 [W]
EnergyBalance : 0.0044981493 [W]
rho max/avg/min : 1.2016436 1.1619964 0.9410133
T   max/avg/min : 374.99553 304.91532 293.70007
P   max/avg/min : 101324.91 101316.16 101307.4
Prg max/avg/min : 101325 101324.71 101321.2
U   max/avg/min : 0.060900565 0.0007409574 -0.0025665729
Prg max-min : 3.7991211
 
sngrad(rho) :1.4355644e-07 4.6017648e-08 -9.6229848e-09
 
Iteration Number = 9

DILUPBiCG:  Solving for Ux, Initial residual = 0.038827724, Final residual = 1.2685277e-06, No Iterations 2
DILUPBiCG:  Solving for Uy, Initial residual = 0.00049970012, Final residual = 3.5538795e-08, No Iterations 2
DILUPBiCG:  Solving for Uz, Initial residual = 0.12838066, Final residual = 1.161973e-06, No Iterations 2
DILUPBiCG:  Solving for h, Initial residual = 0.047646839, Final residual = 4.2440351e-06, No Iterations 3
GAMG:  Solving for p_rgh, Initial residual = 0.0040351904, Final residual = 1.0366746e-06, No Iterations 4
time step continuity errors : sum local = 2.5503886e-05, global = 1.3072528e-06, cumulative = 9.4477552e-05
ExecutionTime = 0.36 s  ClockTime = 1 s
Inflow      : -6.5512297e-07 [kg/s]
Outflow     : -6.5403272e-07 [kg/s]
EnergyInflow  : -0.19356407 [W]
EnergyOutflow : -0.19126914 [W]
EnergyBalance : 0.002294929 [W]
rho max/avg/min : 1.2016434 1.1576832 0.93048799
T   max/avg/min : 379.24297 306.22742 293.70007
P   max/avg/min : 101324.91 101316.16 101307.4
Prg max/avg/min : 101325 101324.68 101321.05
U   max/avg/min : 0.070234364 0.0011730998 -0.0023820428
Prg max-min : 3.9489649
 
sngrad(rho) :1.4124706e-07 4.4410946e-08 -9.5806244e-09
 
Iteration Number = 10

DILUPBiCG:  Solving for Ux, Initial residual = 0.029890125, Final residual = 8.3495916e-07, No Iterations 2
DILUPBiCG:  Solving for Uy, Initial residual = 0.00050607451, Final residual = 2.9894694e-08, No Iterations 2
DILUPBiCG:  Solving for Uz, Initial residual = 0.13263731, Final residual = 1.5137633e-06, No Iterations 2
DILUPBiCG:  Solving for h, Initial residual = 0.042977688, Final residual = 7.2212121e-06, No Iterations 3
GAMG:  Solving for p_rgh, Initial residual = 0.0039533298, Final residual = 2.0034385e-06, No Iterations 4
time step continuity errors : sum local = 5.4669453e-05, global = 2.085278e-05, cumulative = 0.00011533033
ExecutionTime = 0.39 s  ClockTime = 1 s
Inflow      : -5.1536237e-07 [kg/s]
Outflow     : -4.9797116e-07 [kg/s]
EnergyInflow  : -0.1522701 [W]
EnergyOutflow : -0.14464197 [W]
EnergyBalance : 0.0076281316 [W]
rho max/avg/min : 1.2016433 1.1534435 0.92095636
T   max/avg/min : 383.17534 307.52897 293.70007
P   max/avg/min : 101324.91 101316.16 101307.41
Prg max/avg/min : 101325 101324.65 101320.92
U   max/avg/min : 0.079669952 0.0017013679 -0.0021824744
Prg max-min : 4.0831672
 
sngrad(rho) :1.3672018e-07 4.2456829e-08 -9.4713493e-09
 
Iteration Number = 11

DILUPBiCG:  Solving for Ux, Initial residual = 0.024302174, Final residual = 6.9852175e-07, No Iterations 2
DILUPBiCG:  Solving for Uy, Initial residual = 0.00056408518, Final residual = 2.7888402e-08, No Iterations 2
DILUPBiCG:  Solving for Uz, Initial residual = 0.13400344, Final residual = 1.7809192e-06, No Iterations 2
DILUPBiCG:  Solving for h, Initial residual = 0.039221072, Final residual = 8.4155096e-06, No Iterations 3
GAMG:  Solving for p_rgh, Initial residual = 0.0039475782, Final residual = 9.2682736e-07, No Iterations 4
time step continuity errors : sum local = 2.7756707e-05, global = 2.6846011e-06, cumulative = 0.00011801493
ExecutionTime = 0.41 s  ClockTime = 1 s
Inflow      : -3.2047929e-07 [kg/s]
Outflow     : -3.1824033e-07 [kg/s]
EnergyInflow  : -0.094689515 [W]
EnergyOutflow : -0.090989366 [W]
EnergyBalance : 0.0037001492 [W]
rho max/avg/min : 1.2016429 1.1492734 0.91225568
T   max/avg/min : 386.83916 308.81996 293.70008
P   max/avg/min : 101324.91 101316.16 101307.41
Prg max/avg/min : 101325 101324.62 101320.79
U   max/avg/min : 0.088785069 0.0023470277 -0.0019592201
Prg max-min : 4.2049979
 
sngrad(rho) :1.3159207e-07 4.0539689e-08 -9.269002e-09
 
Iteration Number = 12

DILUPBiCG:  Solving for Ux, Initial residual = 0.020738882, Final residual = 5.5785209e-07, No Iterations 2
DILUPBiCG:  Solving for Uy, Initial residual = 0.00077580112, Final residual = 2.1289578e-08, No Iterations 2
DILUPBiCG:  Solving for Uz, Initial residual = 0.13952683, Final residual = 2.2355335e-06, No Iterations 2
DILUPBiCG:  Solving for h, Initial residual = 0.036059876, Final residual = 7.8817455e-06, No Iterations 3
GAMG:  Solving for p_rgh, Initial residual = 0.0040176986, Final residual = 2.705702e-06, No Iterations 4
time step continuity errors : sum local = 8.7962842e-05, global = 3.4091768e-05, cumulative = 0.0001521067
ExecutionTime = 0.45 s  ClockTime = 1 s
Inflow      : -1.218091e-07 [kg/s]
Outflow     : -9.3376583e-08 [kg/s]
EnergyInflow  : -0.035989984 [W]
EnergyOutflow : -0.023981569 [W]
EnergyBalance : 0.012008415 [W]
rho max/avg/min : 1.2016426 1.1451701 0.90426121
T   max/avg/min : 390.27069 310.10027 293.70008
P   max/avg/min : 101324.91 101316.16 101307.41
Prg max/avg/min : 101325 101324.59 101320.68
U   max/avg/min : 0.097757364 0.0031333696 -0.001825366
Prg max-min : 4.3156909
 
sngrad(rho) :1.2561361e-07 3.9041497e-08 -8.8539542e-09
 
Iteration Number = 13

DILUPBiCG:  Solving for Ux, Initial residual = 0.019595702, Final residual = 5.3989214e-07, No Iterations 2
DILUPBiCG:  Solving for Uy, Initial residual = 0.00083302525, Final residual = 2.0422049e-08, No Iterations 2
DILUPBiCG:  Solving for Uz, Initial residual = 0.14405473, Final residual = 2.5598764e-06, No Iterations 2
DILUPBiCG:  Solving for h, Initial residual = 0.033407913, Final residual = 2.7117901e-06, No Iterations 3
GAMG:  Solving for p_rgh, Initial residual = 0.0041352471, Final residual = 1.3394637e-06, No Iterations 4
time step continuity errors : sum local = 4.6912928e-05, global = 3.7180681e-06, cumulative = 0.00015582477
ExecutionTime = 0.48 s  ClockTime = 1 s
Inflow      : 2.1953366e-07 [kg/s]
Outflow     : 2.2263453e-07 [kg/s]
EnergyInflow  : 0.064863899 [W]
EnergyOutflow : 0.069968196 [W]
EnergyBalance : 0.0051042967 [W]
rho max/avg/min : 1.2016419 1.1411319 0.89687477
T   max/avg/min : 393.49897 311.36955 293.7001
P   max/avg/min : 101324.91 101316.16 101307.41
Prg max/avg/min : 101325 101324.56 101320.58
U   max/avg/min : 0.10626469 0.0040990888 -0.0016278606
Prg max-min : 4.4172805
 
sngrad(rho) :1.1917258e-07 3.8337052e-08 -7.9907805e-09
 
Iteration Number = 14

DILUPBiCG:  Solving for Ux, Initial residual = 0.020044462, Final residual = 5.1093396e-07, No Iterations 2
DILUPBiCG:  Solving for Uy, Initial residual = 0.0011521975, Final residual = 2.3599671e-08, No Iterations 2
DILUPBiCG:  Solving for Uz, Initial residual = 0.15285802, Final residual = 2.9179367e-06, No Iterations 2
DILUPBiCG:  Solving for h, Initial residual = 0.031101543, Final residual = 1.7067769e-06, No Iterations 3
GAMG:  Solving for p_rgh, Initial residual = 0.0043627562, Final residual = 2.9730104e-06, No Iterations 4
time step continuity errors : sum local = 0.00010974644, global = 3.8881095e-05, cumulative = 0.00019470586
ExecutionTime = 0.51 s  ClockTime = 1 s
Inflow      : 6.6707917e-07 [kg/s]
Outflow     : 6.9950598e-07 [kg/s]
EnergyInflow  : 0.19709668 [W]
EnergyOutflow : 0.21145344 [W]
EnergyBalance : 0.014356762 [W]
rho max/avg/min : 1.2016419 1.1371566 0.88998823
T   max/avg/min : 396.54748 312.62776 293.70014
P   max/avg/min : 101324.91 101316.16 101307.4
Prg max/avg/min : 101325 101324.53 101320.49
U   max/avg/min : 0.11415627 0.0052849468 -0.0012781925
Prg max-min : 4.5106129
 
sngrad(rho) :1.1278609e-07 3.9277872e-08 -5.7913997e-09
 
Iteration Number = 15

DILUPBiCG:  Solving for Ux, Initial residual = 0.022187517, Final residual = 5.5398206e-07, No Iterations 2
DILUPBiCG:  Solving for Uy, Initial residual = 0.0014116557, Final residual = 4.5811482e-08, No Iterations 2
DILUPBiCG:  Solving for Uz, Initial residual = 0.16050784, Final residual = 3.4987266e-06, No Iterations 2
DILUPBiCG:  Solving for h, Initial residual = 0.02901332, Final residual = 2.460373e-06, No Iterations 3
GAMG:  Solving for p_rgh, Initial residual = 0.0047412791, Final residual = 1.990895e-06, No Iterations 4
time step continuity errors : sum local = 7.4892417e-05, global = 1.4724022e-06, cumulative = 0.00019617827
ExecutionTime = 0.54 s  ClockTime = 1 s
Inflow      : 1.5589815e-06 [kg/s]
Outflow     : 1.5602095e-06 [kg/s]
EnergyInflow  : 0.46062011 [W]
EnergyOutflow : 0.46635672 [W]
EnergyBalance : 0.0057366087 [W]
rho max/avg/min : 1.2016425 1.1332421 0.88355305
T   max/avg/min : 399.43565 313.87483 293.70026
P   max/avg/min : 101324.91 101316.16 101307.4
Prg max/avg/min : 101325 101324.5 101320.4
U   max/avg/min : 0.1214706 0.0067941521 -0.00046636398
Prg max-min : 4.5979928
 
sngrad(rho) :1.0670564e-07 4.3138073e-08 2.7323576e-10
 
Iteration Number = 16

DILUPBiCG:  Solving for Ux, Initial residual = 0.027266302, Final residual = 1.053605e-06, No Iterations 2
DILUPBiCG:  Solving for Uy, Initial residual = 0.0018615638, Final residual = 1.2891447e-07, No Iterations 2
DILUPBiCG:  Solving for Uz, Initial residual = 0.18105914, Final residual = 7.567936e-06, No Iterations 2
DILUPBiCG:  Solving for h, Initial residual = 0.02701595, Final residual = 5.9652676e-06, No Iterations 4
GAMG:  Solving for p_rgh, Initial residual = 0.0054714725, Final residual = 3.0822836e-06, No Iterations 5
time step continuity errors : sum local = 0.00011075581, global = 8.7708227e-06, cumulative = 0.00020494909
ExecutionTime = 0.57 s  ClockTime = 1 s
Inflow      : 3.8379083e-06 [kg/s]
Outflow     : 3.8452232e-06 [kg/s]
EnergyInflow  : 1.1339568 [W]
EnergyOutflow : 1.1421143 [W]
EnergyBalance : 0.0081574864 [W]
rho max/avg/min : 1.2016448 1.1293874 0.87752507
T   max/avg/min : 402.1795 315.11053 293.70011
P   max/avg/min : 101324.91 101316.15 101307.39
Prg max/avg/min : 101325 101324.46 101320.31
U   max/avg/min : 0.12826293 0.0090356118 0
Prg max-min : 4.6867278
 
sngrad(rho) :1.0119714e-07 5.4251392e-08 1.9146478e-08
 
Iteration Number = 17

DILUPBiCG:  Solving for Ux, Initial residual = 0.031434777, Final residual = 2.8313272e-08, No Iterations 3
DILUPBiCG:  Solving for Uy, Initial residual = 0.0029665195, Final residual = 4.4715932e-07, No Iterations 2
DILUPBiCG:  Solving for Uz, Initial residual = 0.27548029, Final residual = 2.5378811e-05, No Iterations 2
DILUPBiCG:  Solving for h, Initial residual = 0.024827763, Final residual = 1.9020146e-05, No Iterations 4
GAMG:  Solving for p_rgh, Initial residual = 0.0073395473, Final residual = 3.9994175e-06, No Iterations 6
time step continuity errors : sum local = 0.00012175907, global = 1.1920544e-05, cumulative = 0.00021686963
ExecutionTime = 0.61 s  ClockTime = 1 s
Inflow      : 1.4248556e-05 [kg/s]
Outflow     : 1.4258498e-05 [kg/s]
EnergyInflow  : 4.2099097 [W]
EnergyOutflow : 4.2195429 [W]
EnergyBalance : 0.0096331855 [W]
rho max/avg/min : 1.201647 1.1255926 0.87186026
T   max/avg/min : 404.79261 316.33436 293.69957
P   max/avg/min : 101324.91 101316.12 101307.33
Prg max/avg/min : 101325 101324.4 101320.17
U   max/avg/min : 0.13474785 0.014755531 0
Prg max-min : 4.8306648
 
sngrad(rho) :3.6837532e-07 9.7469765e-08 1.7698546e-08
 
Iteration Number = 18

DILUPBiCG:  Solving for Ux, Initial residual = 0.054135937, Final residual = 7.5725163e-06, No Iterations 2
DILUPBiCG:  Solving for Uy, Initial residual = 0.0073999642, Final residual = 2.5430696e-06, No Iterations 2
DILUPBiCG:  Solving for Uz, Initial residual = 0.35095557, Final residual = 5.1625959e-05, No Iterations 2
DILUPBiCG:  Solving for h, Initial residual = 0.020879414, Final residual = 2.5401971e-06, No Iterations 5
GAMG:  Solving for p_rgh, Initial residual = 0.012765632, Final residual = 1.2014048e-05, No Iterations 5
time step continuity errors : sum local = 0.00022725673, global = 7.5968504e-05, cumulative = 0.00029283814
ExecutionTime = 0.65 s  ClockTime = 1 s
Inflow      : 2.7587759e-05 [kg/s]
Outflow     : 2.7651117e-05 [kg/s]
EnergyInflow  : 8.15114 [W]
EnergyOutflow : 8.1776124 [W]
EnergyBalance : 0.026472469 [W]
rho max/avg/min : 1.2016591 1.1218736 0.8665172
T   max/avg/min : 407.28861 317.54191 293.6966
P   max/avg/min : 101324.91 101316.07 101307.23
Prg max/avg/min : 101325 101324.33 101320
U   max/avg/min : 0.14105994 0.023147986 0
Prg max-min : 5.0012324
 
sngrad(rho) :4.6344387e-07 1.7748501e-07 1.6401957e-08
 
Iteration Number = 19

DILUPBiCG:  Solving for Ux, Initial residual = 0.077362077, Final residual = 1.0013753e-05, No Iterations 2
DILUPBiCG:  Solving for Uy, Initial residual = 0.014082681, Final residual = 4.327983e-06, No Iterations 2
DILUPBiCG:  Solving for Uz, Initial residual = 0.25900622, Final residual = 3.2794108e-05, No Iterations 2
DILUPBiCG:  Solving for h, Initial residual = 0.01729019, Final residual = 1.6157859e-05, No Iterations 3
GAMG:  Solving for p_rgh, Initial residual = 0.017183829, Final residual = 1.4535383e-05, No Iterations 4
time step continuity errors : sum local = 0.00021225435, global = -8.7086723e-05, cumulative = 0.00020575141
ExecutionTime = 0.68 s  ClockTime = 1 s
Inflow      : 3.7270844e-05 [kg/s]
Outflow     : 3.7198214e-05 [kg/s]
EnergyInflow  : 11.012126 [W]
EnergyOutflow : 11.000411 [W]
EnergyBalance : -0.011714433 [W]
rho max/avg/min : 1.2016867 1.1182348 0.86146493
T   max/avg/min : 409.67724 318.7317 293.68985
P   max/avg/min : 101324.91 101316.08 101307.25
Prg max/avg/min : 101325 101324.31 101319.95
U   max/avg/min : 0.1471753 0.030532929 0
Prg max-min : 5.0456877
 
sngrad(rho) :5.214367e-07 2.1308991e-07 1.5228279e-08
 
Iteration Number = 20

DILUPBiCG:  Solving for Ux, Initial residual = 0.091777002, Final residual = 1.9749833e-05, No Iterations 2
DILUPBiCG:  Solving for Uy, Initial residual = 0.015698455, Final residual = 3.4132336e-06, No Iterations 2
DILUPBiCG:  Solving for Uz, Initial residual = 0.151281, Final residual = 1.6912891e-05, No Iterations 2
DILUPBiCG:  Solving for h, Initial residual = 0.01499138, Final residual = 4.8707921e-06, No Iterations 4
GAMG:  Solving for p_rgh, Initial residual = 0.019509324, Final residual = 3.9524606e-06, No Iterations 6
time step continuity errors : sum local = 5.0047974e-05, global = -1.8205285e-05, cumulative = 0.00018754613
ExecutionTime = 0.73 s  ClockTime = 1 s
Inflow      : 4.1785894e-05 [kg/s]
Outflow     : 4.1770711e-05 [kg/s]
EnergyInflow  : 12.346152 [W]
EnergyOutflow : 12.354223 [W]
EnergyBalance : 0.0080709475 [W]
rho max/avg/min : 1.2017069 1.1146819 0.85667901
T   max/avg/min : 411.96594 319.90223 293.68492
P   max/avg/min : 101324.91 101316.13 101307.33
Prg max/avg/min : 101325 101324.33 101319.97
U   max/avg/min : 0.15314234 0.035369018 0
Prg max-min : 5.0241152
 
sngrad(rho) :4.5902073e-07 1.7644914e-07 3.1237656e-09
 
Iteration Number = 21

DILUPBiCG:  Solving for Ux, Initial residual = 0.045927123, Final residual = 6.9973312e-06, No Iterations 2
DILUPBiCG:  Solving for Uy, Initial residual = 0.013030175, Final residual = 4.2688264e-06, No Iterations 2
DILUPBiCG:  Solving for Uz, Initial residual = 0.066786916, Final residual = 6.5423303e-06, No Iterations 2
DILUPBiCG:  Solving for h, Initial residual = 0.013669192, Final residual = 1.1395627e-05, No Iterations 4
GAMG:  Solving for p_rgh, Initial residual = 0.020293922, Final residual = 1.6732149e-05, No Iterations 4
time step continuity errors : sum local = 0.00019963883, global = 2.6299674e-05, cumulative = 0.0002138458
ExecutionTime = 0.75 s  ClockTime = 1 s
Inflow      : 4.3915242e-05 [kg/s]
Outflow     : 4.3937176e-05 [kg/s]
EnergyInflow  : 12.975294 [W]
EnergyOutflow : 12.997134 [W]
EnergyBalance : 0.021839773 [W]
rho max/avg/min : 1.2017053 1.1112095 0.85213329
T   max/avg/min : 414.16359 321.05443 293.68533
P   max/avg/min : 101324.91 101316.14 101307.36
Prg max/avg/min : 101325 101324.31 101319.93
U   max/avg/min : 0.15888332 0.038966355 0
Prg max-min : 5.0678063
 
sngrad(rho) :3.9611203e-07 1.4015011e-07 -9.6956001e-09
 
Iteration Number = 22

DILUPBiCG:  Solving for Ux, Initial residual = 0.027309143, Final residual = 5.580845e-06, No Iterations 2
DILUPBiCG:  Solving for Uy, Initial residual = 0.01339242, Final residual = 3.5972209e-06, No Iterations 2
DILUPBiCG:  Solving for Uz, Initial residual = 0.051789833, Final residual = 5.0664927e-06, No Iterations 2
DILUPBiCG:  Solving for h, Initial residual = 0.012756935, Final residual = 1.0990478e-05, No Iterations 4
GAMG:  Solving for p_rgh, Initial residual = 0.019721725, Final residual = 1.7370036e-05, No Iterations 4
time step continuity errors : sum local = 0.00021114779, global = 7.1670926e-06, cumulative = 0.00022101289
ExecutionTime = 0.79 s  ClockTime = 1 s
Inflow      : 4.5847719e-05 [kg/s]
Outflow     : 4.5853697e-05 [kg/s]
EnergyInflow  : 13.546268 [W]
EnergyOutflow : 13.566038 [W]
EnergyBalance : 0.019770164 [W]
rho max/avg/min : 1.2016943 1.1078186 0.84781067
T   max/avg/min : 416.27523 322.18728 293.68801
P   max/avg/min : 101324.91 101316.13 101307.35
Prg max/avg/min : 101325 101324.29 101319.87
U   max/avg/min : 0.16444066 0.042543118 0
Prg max-min : 5.1291351
 
sngrad(rho) :3.3844263e-07 1.3686735e-07 -7.6167245e-09
 
Iteration Number = 23

DILUPBiCG:  Solving for Ux, Initial residual = 0.022577053, Final residual = 6.145333e-06, No Iterations 2
DILUPBiCG:  Solving for Uy, Initial residual = 0.013424101, Final residual = 2.8882428e-06, No Iterations 2
DILUPBiCG:  Solving for Uz, Initial residual = 0.053775845, Final residual = 5.1254801e-06, No Iterations 2
DILUPBiCG:  Solving for h, Initial residual = 0.011962086, Final residual = 5.4671535e-06, No Iterations 4
GAMG:  Solving for p_rgh, Initial residual = 0.019077166, Final residual = 1.3369549e-05, No Iterations 4
time step continuity errors : sum local = 0.00016737771, global = -2.5034234e-05, cumulative = 0.00019597866
ExecutionTime = 0.81 s  ClockTime = 1 s
Inflow      : 4.8236827e-05 [kg/s]
Outflow     : 4.8215948e-05 [kg/s]
EnergyInflow  : 14.252159 [W]
EnergyOutflow : 14.266916 [W]
EnergyBalance : 0.014756669 [W]
rho max/avg/min : 1.2016885 1.1045076 0.84369732
T   max/avg/min : 418.30472 323.30081 293.68943
P   max/avg/min : 101324.91 101316.12 101307.33
Prg max/avg/min : 101325 101324.25 101319.79
U   max/avg/min : 0.1699837 0.046537209 0
Prg max-min : 5.2026357
 
sngrad(rho) :3.1300208e-07 1.5633167e-07 -1.1291026e-08
 
Iteration Number = 24

DILUPBiCG:  Solving for Ux, Initial residual = 0.02625204, Final residual = 4.6456309e-06, No Iterations 2
DILUPBiCG:  Solving for Uy, Initial residual = 0.014639757, Final residual = 1.0384779e-05, No Iterations 2
DILUPBiCG:  Solving for Uz, Initial residual = 0.064983212, Final residual = 6.0655116e-06, No Iterations 2
DILUPBiCG:  Solving for h, Initial residual = 0.011192163, Final residual = 6.2554858e-06, No Iterations 4
GAMG:  Solving for p_rgh, Initial residual = 0.018557401, Final residual = 1.8297237e-05, No Iterations 4
time step continuity errors : sum local = 0.00023580696, global = 6.6081224e-05, cumulative = 0.00026205988
ExecutionTime = 0.85 s  ClockTime = 1 s
Inflow      : 5.0801169e-05 [kg/s]
Outflow     : 5.0856281e-05 [kg/s]
EnergyInflow  : 15.009825 [W]
EnergyOutflow : 15.050594 [W]
EnergyBalance : 0.040768722 [W]
rho max/avg/min : 1.2016922 1.1012805 0.8397792
T   max/avg/min : 420.25639 324.39375 293.68852
P   max/avg/min : 101324.91 101316.12 101307.33
Prg max/avg/min : 101325 101324.23 101319.74
U   max/avg/min : 0.17562244 0.05085151 0
Prg max-min : 5.2590338
 
sngrad(rho) :3.6099708e-07 1.7589746e-07 -2.5277578e-08
 
Iteration Number = 25

DILUPBiCG:  Solving for Ux, Initial residual = 0.028748642, Final residual = 4.7285175e-06, No Iterations 2
DILUPBiCG:  Solving for Uy, Initial residual = 0.014716412, Final residual = 4.6876987e-06, No Iterations 2
DILUPBiCG:  Solving for Uz, Initial residual = 0.064826252, Final residual = 6.0406099e-06, No Iterations 2
DILUPBiCG:  Solving for h, Initial residual = 0.010461818, Final residual = 4.9615571e-06, No Iterations 4
GAMG:  Solving for p_rgh, Initial residual = 0.018136735, Final residual = 1.2510791e-05, No Iterations 4
time step continuity errors : sum local = 0.00016374971, global = 1.2439267e-05, cumulative = 0.00027449915
ExecutionTime = 0.88 s  ClockTime = 1 s
Inflow      : 5.3411585e-05 [kg/s]
Outflow     : 5.3421959e-05 [kg/s]
EnergyInflow  : 15.781104 [W]
EnergyOutflow : 15.812911 [W]
EnergyBalance : 0.031806825 [W]
rho max/avg/min : 1.2016957 1.0981374 0.83604399
T   max/avg/min : 422.13397 325.46596 293.68766
P   max/avg/min : 101324.91 101316.12 101307.33
Prg max/avg/min : 101325 101324.2 101319.69
U   max/avg/min : 0.18235188 0.055266057 0
Prg max-min : 5.308599
 
sngrad(rho) :4.2006105e-07 1.8838438e-07 -4.9114607e-08
 
Iteration Number = 26

DILUPBiCG:  Solving for Ux, Initial residual = 0.026085727, Final residual = 4.2660611e-06, No Iterations 2
DILUPBiCG:  Solving for Uy, Initial residual = 0.016898211, Final residual = 4.6309347e-06, No Iterations 2
DILUPBiCG:  Solving for Uz, Initial residual = 0.062154338, Final residual = 5.7685782e-06, No Iterations 2
DILUPBiCG:  Solving for h, Initial residual = 0.0097968327, Final residual = 8.614756e-06, No Iterations 4
GAMG:  Solving for p_rgh, Initial residual = 0.017752769, Final residual = 1.7488242e-05, No Iterations 4
time step continuity errors : sum local = 0.00023208184, global = -5.7975459e-05, cumulative = 0.00021652369
ExecutionTime = 0.91 s  ClockTime = 1 s
Inflow      : 5.5777287e-05 [kg/s]
Outflow     : 5.5728936e-05 [kg/s]
EnergyInflow  : 16.48008 [W]
EnergyOutflow : 16.499409 [W]
EnergyBalance : 0.019328619 [W]
rho max/avg/min : 1.2017018 1.0950814 0.83248249
T   max/avg/min : 423.93993 326.51634 293.68617
P   max/avg/min : 101324.91 101316.13 101307.33
Prg max/avg/min : 101325 101324.18 101319.65
U   max/avg/min : 0.1893727 0.059673826 0
Prg max-min : 5.3511817
 
sngrad(rho) :4.5167418e-07 1.9610739e-07 -7.9288058e-08
 
Iteration Number = 27

DILUPBiCG:  Solving for Ux, Initial residual = 0.023828441, Final residual = 4.383666e-06, No Iterations 2
DILUPBiCG:  Solving for Uy, Initial residual = 0.019613153, Final residual = 4.6822524e-06, No Iterations 2
DILUPBiCG:  Solving for Uz, Initial residual = 0.057446225, Final residual = 5.3171316e-06, No Iterations 2
DILUPBiCG:  Solving for h, Initial residual = 0.0092018985, Final residual = 7.5128724e-06, No Iterations 4
GAMG:  Solving for p_rgh, Initial residual = 0.017405195, Final residual = 1.5825445e-05, No Iterations 4
time step continuity errors : sum local = 0.00021206211, global = 9.4468636e-05, cumulative = 0.00031099233
ExecutionTime = 0.94 s  ClockTime = 1 s
Inflow      : 5.7749832e-05 [kg/s]
Outflow     : 5.7828619e-05 [kg/s]
EnergyInflow  : 17.062892 [W]
EnergyOutflow : 17.125222 [W]
EnergyBalance : 0.062329355 [W]
rho max/avg/min : 1.2017056 1.0921158 0.82908976
T   max/avg/min : 425.67475 327.54351 293.68525
P   max/avg/min : 101324.91 101316.13 101307.34
Prg max/avg/min : 101325 101324.16 101319.6
U   max/avg/min : 0.20265704 0.064027515 0
Prg max-min : 5.3910553
 
sngrad(rho) :4.7356909e-07 2.0334359e-07 -1.1399288e-07
 
Iteration Number = 28

DILUPBiCG:  Solving for Ux, Initial residual = 0.021378997, Final residual = 4.1035452e-06, No Iterations 2
DILUPBiCG:  Solving for Uy, Initial residual = 0.019665353, Final residual = 2.2356626e-07, No Iterations 3
DILUPBiCG:  Solving for Uz, Initial residual = 0.053132422, Final residual = 4.9000262e-06, No Iterations 2
DILUPBiCG:  Solving for h, Initial residual = 0.0086720678, Final residual = 6.7716697e-06, No Iterations 4
GAMG:  Solving for p_rgh, Initial residual = 0.016998095, Final residual = 1.1738872e-05, No Iterations 4
time step continuity errors : sum local = 0.00015934343, global = 2.5357583e-05, cumulative = 0.00033634991
ExecutionTime = 0.97 s  ClockTime = 1 s
Inflow      : 5.9655849e-05 [kg/s]
Outflow     : 5.9676997e-05 [kg/s]
EnergyInflow  : 17.626048 [W]
EnergyOutflow : 17.677362 [W]
EnergyBalance : 0.051313788 [W]
rho max/avg/min : 1.2017032 1.0892412 0.82586095
T   max/avg/min : 427.33898 328.54697 293.68582
P   max/avg/min : 101324.91 101316.13 101307.34
Prg max/avg/min : 101325 101324.14 101319.56
U   max/avg/min : 0.21883413 0.068399793 0
Prg max-min : 5.4352031
 
sngrad(rho) :4.9999258e-07 2.1046929e-07 -1.4662654e-07
 
Iteration Number = 29

DILUPBiCG:  Solving for Ux, Initial residual = 0.023009774, Final residual = 4.4001715e-06, No Iterations 2
DILUPBiCG:  Solving for Uy, Initial residual = 0.020654738, Final residual = 6.8069573e-06, No Iterations 2
DILUPBiCG:  Solving for Uz, Initial residual = 0.052796645, Final residual = 4.8804326e-06, No Iterations 2
DILUPBiCG:  Solving for h, Initial residual = 0.0081873278, Final residual = 6.5248754e-06, No Iterations 4
GAMG:  Solving for p_rgh, Initial residual = 0.016657852, Final residual = 4.2842088e-06, No Iterations 5
time step continuity errors : sum local = 5.898393e-05, global = 3.2211208e-06, cumulative = 0.00033957103
ExecutionTime = 1 s  ClockTime = 1 s
Inflow      : 6.1265275e-05 [kg/s]
Outflow     : 6.1267961e-05 [kg/s]
EnergyInflow  : 18.101573 [W]
EnergyOutflow : 18.15404 [W]
EnergyBalance : 0.052466874 [W]
rho max/avg/min : 1.2017101 1.0864591 0.82279166
T   max/avg/min : 428.93309 329.52599 293.68413
P   max/avg/min : 101324.91 101316.13 101307.35
Prg max/avg/min : 101325 101324.12 101319.53
U   max/avg/min : 0.2347287 0.072713671 0
Prg max-min : 5.4674481
 
sngrad(rho) :5.3012125e-07 2.1530646e-07 -1.7234152e-07
 
Iteration Number = 30

DILUPBiCG:  Solving for Ux, Initial residual = 0.020279238, Final residual = 4.1080109e-06, No Iterations 2
DILUPBiCG:  Solving for Uy, Initial residual = 0.021290199, Final residual = 1.4751241e-05, No Iterations 2
DILUPBiCG:  Solving for Uz, Initial residual = 0.047257225, Final residual = 4.430478e-06, No Iterations 2
DILUPBiCG:  Solving for h, Initial residual = 0.0077498881, Final residual = 7.0038686e-06, No Iterations 4
GAMG:  Solving for p_rgh, Initial residual = 0.016361691, Final residual = 4.5705226e-06, No Iterations 5
time step continuity errors : sum local = 6.3640485e-05, global = -1.4797682e-05, cumulative = 0.00032477335
ExecutionTime = 1.04 s  ClockTime = 1 s
Inflow      : 6.2581603e-05 [kg/s]
Outflow     : 6.2569262e-05 [kg/s]
EnergyInflow  : 18.490498 [W]
EnergyOutflow : 18.545688 [W]
EnergyBalance : 0.05518951 [W]
rho max/avg/min : 1.201712 1.0837698 0.81987807
T   max/avg/min : 430.45739 330.48025 293.68367
P   max/avg/min : 101324.91 101316.14 101307.35
Prg max/avg/min : 101325 101324.1 101319.49
U   max/avg/min : 0.2505567 0.07692427 0
Prg max-min : 5.5010593
 
sngrad(rho) :5.5897972e-07 2.1919738e-07 -1.8553412e-07
 
Iteration Number = 31

DILUPBiCG:  Solving for Ux, Initial residual = 0.018680521, Final residual = 4.2090154e-06, No Iterations 2
DILUPBiCG:  Solving for Uy, Initial residual = 0.020488241, Final residual = 1.0158335e-05, No Iterations 2
DILUPBiCG:  Solving for Uz, Initial residual = 0.043870831, Final residual = 4.2207484e-06, No Iterations 2
DILUPBiCG:  Solving for h, Initial residual = 0.0073595467, Final residual = 4.6606873e-06, No Iterations 5
GAMG:  Solving for p_rgh, Initial residual = 0.016031924, Final residual = 1.3474182e-05, No Iterations 4
time step continuity errors : sum local = 0.00019014644, global = 4.7799464e-05, cumulative = 0.00037257281
ExecutionTime = 1.06 s  ClockTime = 1 s
Inflow      : 6.362429e-05 [kg/s]
Outflow     : 6.3664155e-05 [kg/s]
EnergyInflow  : 18.798573 [W]
EnergyOutflow : 18.876891 [W]
EnergyBalance : 0.078318009 [W]
rho max/avg/min : 1.2017107 1.0811743 0.81712042
T   max/avg/min : 431.91011 331.40893 293.68398
P   max/avg/min : 101324.91 101316.14 101307.36
Prg max/avg/min : 101324.99 101324.09 101319.46
U   max/avg/min : 0.26565837 0.081070837 0
Prg max-min : 5.5346751
 
sngrad(rho) :5.8898023e-07 2.2390119e-07 -1.8550436e-07
 
Iteration Number = 32

DILUPBiCG:  Solving for Ux, Initial residual = 0.017119079, Final residual = 5.3097359e-06, No Iterations 2
DILUPBiCG:  Solving for Uy, Initial residual = 0.019233703, Final residual = 3.3840206e-07, No Iterations 3
DILUPBiCG:  Solving for Uz, Initial residual = 0.041395498, Final residual = 4.0513638e-06, No Iterations 2
DILUPBiCG:  Solving for h, Initial residual = 0.0070062877, Final residual = 4.3104723e-06, No Iterations 5
GAMG:  Solving for p_rgh, Initial residual = 0.015676389, Final residual = 1.042333e-05, No Iterations 4
time step continuity errors : sum local = 0.00014924563, global = 5.4158042e-05, cumulative = 0.00042673086
ExecutionTime = 1.1 s  ClockTime = 1 s
Inflow      : 6.4587938e-05 [kg/s]
Outflow     : 6.4633106e-05 [kg/s]
EnergyInflow  : 19.083294 [W]
EnergyOutflow : 19.171454 [W]
EnergyBalance : 0.088159226 [W]
rho max/avg/min : 1.2017113 1.0786709 0.81451268
T   max/avg/min : 433.29291 332.31236 293.68384
P   max/avg/min : 101324.91 101316.14 101307.36
Prg max/avg/min : 101324.99 101324.07 101319.42
U   max/avg/min : 0.28019663 0.085254558 0
Prg max-min : 5.5754076
 
sngrad(rho) :6.1876044e-07 2.3090478e-07 -1.7324609e-07
 
Iteration Number = 33

DILUPBiCG:  Solving for Ux, Initial residual = 0.018640197, Final residual = 5.4468817e-06, No Iterations 2
DILUPBiCG:  Solving for Uy, Initial residual = 0.018385659, Final residual = 5.5382862e-06, No Iterations 2
DILUPBiCG:  Solving for Uz, Initial residual = 0.042198084, Final residual = 4.0861705e-06, No Iterations 2
DILUPBiCG:  Solving for h, Initial residual = 0.0066722517, Final residual = 3.8353779e-06, No Iterations 5
GAMG:  Solving for p_rgh, Initial residual = 0.015390737, Final residual = 2.6673052e-06, No Iterations 5
time step continuity errors : sum local = 3.8831859e-05, global = 2.053025e-05, cumulative = 0.00044726111
ExecutionTime = 1.13 s  ClockTime = 1 s
Inflow      : 6.5518557e-05 [kg/s]
Outflow     : 6.5535679e-05 [kg/s]
EnergyInflow  : 19.358257 [W]
EnergyOutflow : 19.447004 [W]
EnergyBalance : 0.088746727 [W]
rho max/avg/min : 1.201716 1.0762611 0.81205128
T   max/avg/min : 434.60626 333.18982 293.68269
P   max/avg/min : 101324.91 101316.14 101307.36
Prg max/avg/min : 101324.99 101324.05 101319.39
U   max/avg/min : 0.29475095 0.08944438 0
Prg max-min : 5.6072598
 
sngrad(rho) :6.4552223e-07 2.3619392e-07 -1.5344944e-07
 
Iteration Number = 34

DILUPBiCG:  Solving for Ux, Initial residual = 0.016263284, Final residual = 5.064398e-06, No Iterations 2
DILUPBiCG:  Solving for Uy, Initial residual = 0.020083431, Final residual = 5.6647635e-06, No Iterations 2
DILUPBiCG:  Solving for Uz, Initial residual = 0.040345612, Final residual = 4.0140363e-06, No Iterations 2
DILUPBiCG:  Solving for h, Initial residual = 0.006361257, Final residual = 4.0428034e-06, No Iterations 5
GAMG:  Solving for p_rgh, Initial residual = 0.015116015, Final residual = 1.0853781e-05, No Iterations 4
time step continuity errors : sum local = 0.00016016006, global = 9.0209567e-05, cumulative = 0.00053747067
ExecutionTime = 1.16 s  ClockTime = 1 s
Inflow      : 6.6322249e-05 [kg/s]
Outflow     : 6.6397483e-05 [kg/s]
EnergyInflow  : 19.595717 [W]
EnergyOutflow : 19.711074 [W]
EnergyBalance : 0.11535633 [W]
rho max/avg/min : 1.2017178 1.0739446 0.80973355
T   max/avg/min : 435.85025 334.04108 293.68225
P   max/avg/min : 101324.91 101316.14 101307.36
Prg max/avg/min : 101324.99 101324.03 101319.35
U   max/avg/min : 0.30866843 0.09363479 0
Prg max-min : 5.6433013
 
sngrad(rho) :6.7155213e-07 2.4244388e-07 -1.2910658e-07
 
Iteration Number = 35

DILUPBiCG:  Solving for Ux, Initial residual = 0.01598388, Final residual = 6.6106754e-06, No Iterations 2
DILUPBiCG:  Solving for Uy, Initial residual = 0.020546473, Final residual = 4.8595428e-06, No Iterations 2
DILUPBiCG:  Solving for Uz, Initial residual = 0.040244924, Final residual = 3.9801361e-06, No Iterations 2
DILUPBiCG:  Solving for h, Initial residual = 0.0060708815, Final residual = 4.5611383e-06, No Iterations 5
GAMG:  Solving for p_rgh, Initial residual = 0.014880051, Final residual = 5.2597629e-06, No Iterations 4
time step continuity errors : sum local = 7.8701462e-05, global = -1.4280577e-05, cumulative = 0.0005231901
ExecutionTime = 1.2 s  ClockTime = 1 s
Inflow      : 6.7307946e-05 [kg/s]
Outflow     : 6.7296036e-05 [kg/s]
EnergyInflow  : 19.886954 [W]
EnergyOutflow : 19.986599 [W]
EnergyBalance : 0.099645164 [W]
rho max/avg/min : 1.2017173 1.0717202 0.80755656
T   max/avg/min : 437.0252 334.86613 293.68237
P   max/avg/min : 101324.91 101316.14 101307.36
Prg max/avg/min : 101324.99 101324.01 101319.31
U   max/avg/min : 0.32198687 0.09791404 0
Prg max-min : 5.6837653
 
sngrad(rho) :6.984719e-07 2.495229e-07 -1.050896e-07
 
Iteration Number = 36

DILUPBiCG:  Solving for Ux, Initial residual = 0.017375767, Final residual = 8.6071275e-06, No Iterations 2
DILUPBiCG:  Solving for Uy, Initial residual = 0.021325654, Final residual = 2.0813098e-05, No Iterations 2
DILUPBiCG:  Solving for Uz, Initial residual = 0.042267254, Final residual = 4.1155938e-06, No Iterations 2
DILUPBiCG:  Solving for h, Initial residual = 0.0057899862, Final residual = 5.2520456e-06, No Iterations 5
GAMG:  Solving for p_rgh, Initial residual = 0.014655525, Final residual = 7.316643e-06, No Iterations 4
time step continuity errors : sum local = 0.00011105915, global = -3.5676388e-06, cumulative = 0.00051962246
ExecutionTime = 1.22 s  ClockTime = 1 s
Inflow      : 6.8215735e-05 [kg/s]
Outflow     : 6.8212759e-05 [kg/s]
EnergyInflow  : 20.155171 [W]
EnergyOutflow : 20.268092 [W]
EnergyBalance : 0.11292069 [W]
rho max/avg/min : 1.2017155 1.0695884 0.80543252
T   max/avg/min : 438.13175 335.66461 293.6828
P   max/avg/min : 101324.91 101316.14 101307.36
Prg max/avg/min : 101324.99 101323.99 101319.28
U   max/avg/min : 0.33474154 0.10220944 0
Prg max-min : 5.7137287
 
sngrad(rho) :7.2179211e-07 2.5461293e-07 -9.2932871e-08
 
Iteration Number = 37

DILUPBiCG:  Solving for Ux, Initial residual = 0.017045261, Final residual = 6.308762e-06, No Iterations 2
DILUPBiCG:  Solving for Uy, Initial residual = 0.021301936, Final residual = 5.4157901e-06, No Iterations 2
DILUPBiCG:  Solving for Uz, Initial residual = 0.039964904, Final residual = 3.9277367e-06, No Iterations 2
DILUPBiCG:  Solving for h, Initial residual = 0.0055246294, Final residual = 1.3463081e-06, No Iterations 6
GAMG:  Solving for p_rgh, Initial residual = 0.014490397, Final residual = 4.9891134e-06, No Iterations 4
time step continuity errors : sum local = 7.6451815e-05, global = 7.406529e-07, cumulative = 0.00052036311
ExecutionTime = 1.25 s  ClockTime = 1 s
Inflow      : 6.9147884e-05 [kg/s]
Outflow     : 6.9148502e-05 [kg/s]
EnergyInflow  : 20.430586 [W]
EnergyOutflow : 20.555757 [W]
EnergyBalance : 0.1251706 [W]
rho max/avg/min : 1.2017135 1.0675483 0.80318998
T   max/avg/min : 439.3274 336.4363 293.68331
P   max/avg/min : 101324.91 101316.14 101307.35
Prg max/avg/min : 101324.99 101323.97 101319.24
U   max/avg/min : 0.34695996 0.1065429 0
Prg max-min : 5.7520264
 
sngrad(rho) :7.41636e-07 2.5886173e-07 -8.428515e-08
 
Iteration Number = 38

DILUPBiCG:  Solving for Ux, Initial residual = 0.018269275, Final residual = 8.6432686e-08, No Iterations 3
DILUPBiCG:  Solving for Uy, Initial residual = 0.021164215, Final residual = 5.4050637e-06, No Iterations 2
DILUPBiCG:  Solving for Uz, Initial residual = 0.039942745, Final residual = 3.8290606e-06, No Iterations 2
DILUPBiCG:  Solving for h, Initial residual = 0.00526966, Final residual = 1.3899553e-06, No Iterations 6
GAMG:  Solving for p_rgh, Initial residual = 0.01431246, Final residual = 1.1897888e-05, No Iterations 4
time step continuity errors : sum local = 0.00018454061, global = -1.7143622e-05, cumulative = 0.00050321949
ExecutionTime = 1.28 s  ClockTime = 2 s
Inflow      : 7.006809e-05 [kg/s]
Outflow     : 7.0053792e-05 [kg/s]
EnergyInflow  : 20.702472 [W]
EnergyOutflow : 20.834915 [W]
EnergyBalance : 0.13244255 [W]
rho max/avg/min : 1.201717 1.0655991 0.80102814
T   max/avg/min : 440.51305 337.18127 293.68245
P   max/avg/min : 101324.91 101316.14 101307.36
Prg max/avg/min : 101324.99 101323.96 101319.21
U   max/avg/min : 0.35865583 0.11085974 0
Prg max-min : 5.7786485
 
sngrad(rho) :7.5507536e-07 2.5940928e-07 -8.2487046e-08
 
Iteration Number = 39

DILUPBiCG:  Solving for Ux, Initial residual = 0.01971592, Final residual = 5.9073142e-06, No Iterations 2
DILUPBiCG:  Solving for Uy, Initial residual = 0.022117631, Final residual = 7.9307293e-06, No Iterations 2
DILUPBiCG:  Solving for Uz, Initial residual = 0.035472633, Final residual = 3.4987967e-06, No Iterations 2
DILUPBiCG:  Solving for h, Initial residual = 0.0050309418, Final residual = 1.5805851e-06, No Iterations 6
GAMG:  Solving for p_rgh, Initial residual = 0.014126743, Final residual = 6.4244777e-06, No Iterations 4
time step continuity errors : sum local = 0.00010046293, global = 4.3552337e-05, cumulative = 0.00054677183
ExecutionTime = 1.31 s  ClockTime = 2 s
Inflow      : 7.088878e-05 [kg/s]
Outflow     : 7.0925103e-05 [kg/s]
EnergyInflow  : 20.944955 [W]
EnergyOutflow : 21.104447 [W]
EnergyBalance : 0.15949223 [W]
rho max/avg/min : 1.2017185 1.0637383 0.7989431
T   max/avg/min : 441.6627 337.89991 293.68208
P   max/avg/min : 101324.91 101316.14 101307.36
Prg max/avg/min : 101324.99 101323.94 101319.18
U   max/avg/min : 0.37001016 0.11516866 0
Prg max-min : 5.8131509
 
sngrad(rho) :7.6713946e-07 2.607092e-07 -7.9139458e-08
 
Iteration Number = 40

DILUPBiCG:  Solving for Ux, Initial residual = 0.020907576, Final residual = 1.1853094e-05, No Iterations 2
DILUPBiCG:  Solving for Uy, Initial residual = 0.022309858, Final residual = 1.0196368e-05, No Iterations 2
DILUPBiCG:  Solving for Uz, Initial residual = 0.033621738, Final residual = 3.2270163e-06, No Iterations 2
DILUPBiCG:  Solving for h, Initial residual = 0.0048018637, Final residual = 1.6543329e-06, No Iterations 6
GAMG:  Solving for p_rgh, Initial residual = 0.0140331, Final residual = 1.1468894e-05, No Iterations 4
time step continuity errors : sum local = 0.00018113592, global = 3.0487496e-05, cumulative = 0.00057725932
ExecutionTime = 1.35 s  ClockTime = 2 s
Inflow      : 7.1672576e-05 [kg/s]
Outflow     : 7.1698002e-05 [kg/s]
EnergyInflow  : 21.176537 [W]
EnergyOutflow : 21.345233 [W]
EnergyBalance : 0.16869647 [W]
rho max/avg/min : 1.2017184 1.061966 0.7969311
T   max/avg/min : 442.77775 338.59193 293.68209
P   max/avg/min : 101324.91 101316.14 101307.36
Prg max/avg/min : 101324.99 101323.93 101319.16
U   max/avg/min : 0.38098623 0.11942323 0
Prg max-min : 5.8369193
 
sngrad(rho) :7.6680065e-07 2.5507129e-07 -8.4385569e-08
 
Iteration Number = 41

DILUPBiCG:  Solving for Ux, Initial residual = 0.022438113, Final residual = 5.7639379e-06, No Iterations 2
DILUPBiCG:  Solving for Uy, Initial residual = 0.021440608, Final residual = 7.5332855e-06, No Iterations 2
DILUPBiCG:  Solving for Uz, Initial residual = 0.029507538, Final residual = 2.9446779e-06, No Iterations 2
DILUPBiCG:  Solving for h, Initial residual = 0.0045887775, Final residual = 2.4115554e-06, No Iterations 6
GAMG:  Solving for p_rgh, Initial residual = 0.013775694, Final residual = 3.824006e-06, No Iterations 4
time step continuity errors : sum local = 6.0882907e-05, global = 2.3996024e-05, cumulative = 0.00060125535
ExecutionTime = 1.39 s  ClockTime = 2 s
Inflow      : 7.2345523e-05 [kg/s]
Outflow     : 7.2365535e-05 [kg/s]
EnergyInflow  : 21.375367 [W]
EnergyOutflow : 21.555067 [W]
EnergyBalance : 0.17969937 [W]
rho max/avg/min : 1.2017174 1.0602784 0.79498822
T   max/avg/min : 443.86615 339.25814 293.68235
P   max/avg/min : 101324.9 101316.14 101307.36
Prg max/avg/min : 101324.99 101323.92 101319.13
U   max/avg/min : 0.39141026 0.12360032 0
Prg max-min : 5.8645536
 
sngrad(rho) :7.6814729e-07 2.521239e-07 -8.5101146e-08
 
Iteration Number = 42

DILUPBiCG:  Solving for Ux, Initial residual = 0.024630204, Final residual = 8.3284009e-06, No Iterations 2
DILUPBiCG:  Solving for Uy, Initial residual = 0.021379422, Final residual = 1.3540148e-05, No Iterations 2
DILUPBiCG:  Solving for Uz, Initial residual = 0.026606872, Final residual = 2.6668314e-06, No Iterations 2
DILUPBiCG:  Solving for h, Initial residual = 0.0043879802, Final residual = 4.2839449e-06, No Iterations 6
GAMG:  Solving for p_rgh, Initial residual = 0.013659248, Final residual = 3.3161252e-06, No Iterations 4
time step continuity errors : sum local = 5.3229825e-05, global = 2.4427782e-05, cumulative = 0.00062568313
ExecutionTime = 1.42 s  ClockTime = 2 s
Inflow      : 7.2889721e-05 [kg/s]
Outflow     : 7.2910094e-05 [kg/s]
EnergyInflow  : 21.536157 [W]
EnergyOutflow : 21.728724 [W]
EnergyBalance : 0.19256641 [W]
rho max/avg/min : 1.2017156 1.0586744 0.79309725
T   max/avg/min : 444.92452 339.89863 293.68279
P   max/avg/min : 101324.9 101316.14 101307.37
Prg max/avg/min : 101324.99 101323.9 101319.1
U   max/avg/min : 0.40129694 0.12770316 0
Prg max-min : 5.8890633
 
sngrad(rho) :7.6137363e-07 2.4394045e-07 -9.3517011e-08
 
Iteration Number = 43

DILUPBiCG:  Solving for Ux, Initial residual = 0.024772111, Final residual = 8.6838018e-06, No Iterations 2
DILUPBiCG:  Solving for Uy, Initial residual = 0.020643786, Final residual = 6.214587e-06, No Iterations 2
DILUPBiCG:  Solving for Uz, Initial residual = 0.02395914, Final residual = 2.4378283e-06, No Iterations 2
DILUPBiCG:  Solving for h, Initial residual = 0.0042001699, Final residual = 2.3670764e-07, No Iterations 7
GAMG:  Solving for p_rgh, Initial residual = 0.013373363, Final residual = 3.1082827e-06, No Iterations 4
time step continuity errors : sum local = 5.0317313e-05, global = -1.4527685e-05, cumulative = 0.00061115544
ExecutionTime = 1.45 s  ClockTime = 2 s
Inflow      : 7.3325714e-05 [kg/s]
Outflow     : 7.3313598e-05 [kg/s]
EnergyInflow  : 21.664977 [W]
EnergyOutflow : 21.860706 [W]
EnergyBalance : 0.19572893 [W]
rho max/avg/min : 1.2017133 1.0571522 0.79127017
T   max/avg/min : 445.95194 340.5134 293.68335
P   max/avg/min : 101324.9 101316.15 101307.37
Prg max/avg/min : 101324.99 101323.89 101319.08
U   max/avg/min : 0.41065315 0.13172047 0
Prg max-min : 5.9134387
 
sngrad(rho) :7.5093685e-07 2.3632535e-07 -9.7587731e-08
 
Iteration Number = 44

DILUPBiCG:  Solving for Ux, Initial residual = 0.027276355, Final residual = 8.2578288e-06, No Iterations 2
DILUPBiCG:  Solving for Uy, Initial residual = 0.020830058, Final residual = 1.3660528e-05, No Iterations 2
DILUPBiCG:  Solving for Uz, Initial residual = 0.021677778, Final residual = 2.2455094e-06, No Iterations 2
DILUPBiCG:  Solving for h, Initial residual = 0.0040238378, Final residual = 1.6203241e-06, No Iterations 6
GAMG:  Solving for p_rgh, Initial residual = 0.013134054, Final residual = 2.1975654e-06, No Iterations 4
time step continuity errors : sum local = 3.5871184e-05, global = -1.0082523e-05, cumulative = 0.00060107292
ExecutionTime = 1.48 s  ClockTime = 2 s
Inflow      : 7.3602912e-05 [kg/s]
Outflow     : 7.3594503e-05 [kg/s]
EnergyInflow  : 21.746878 [W]
EnergyOutflow : 21.956454 [W]
EnergyBalance : 0.20957553 [W]
rho max/avg/min : 1.2017107 1.0557087 0.78950305
T   max/avg/min : 446.95015 341.10316 293.68398
P   max/avg/min : 101324.9 101316.15 101307.38
Prg max/avg/min : 101324.99 101323.88 101319.06
U   max/avg/min : 0.41950756 0.13564237 0
Prg max-min : 5.9358963
 
sngrad(rho) :7.3679512e-07 2.2759259e-07 -1.0576794e-07
 
Iteration Number = 45

DILUPBiCG:  Solving for Ux, Initial residual = 0.027501069, Final residual = 6.1561074e-06, No Iterations 2
DILUPBiCG:  Solving for Uy, Initial residual = 0.020764697, Final residual = 1.8721364e-07, No Iterations 3
DILUPBiCG:  Solving for Uz, Initial residual = 0.019750261, Final residual = 2.0807398e-06, No Iterations 2
DILUPBiCG:  Solving for h, Initial residual = 0.0038585373, Final residual = 3.1871586e-06, No Iterations 5
GAMG:  Solving for p_rgh, Initial residual = 0.012824124, Final residual = 2.1005779e-06, No Iterations 4
time step continuity errors : sum local = 3.4576832e-05, global = -8.6753892e-06, cumulative = 0.00059239753
ExecutionTime = 1.51 s  ClockTime = 2 s
Inflow      : 7.3747937e-05 [kg/s]
Outflow     : 7.3740702e-05 [kg/s]
EnergyInflow  : 21.789728 [W]
EnergyOutflow : 22.012312 [W]
EnergyBalance : 0.22258437 [W]
rho max/avg/min : 1.2017079 1.0543412 0.787793
T   max/avg/min : 447.92036 341.66847 293.68467
P   max/avg/min : 101324.9 101316.15 101307.38
Prg max/avg/min : 101324.99 101323.87 101319.04
U   max/avg/min : 0.4278837 0.13946153 0
Prg max-min : 5.9578337
 
sngrad(rho) :7.1953965e-07 2.175298e-07 -1.115194e-07
 
Iteration Number = 46

DILUPBiCG:  Solving for Ux, Initial residual = 0.029677239, Final residual = 1.8163238e-07, No Iterations 3
DILUPBiCG:  Solving for Uy, Initial residual = 0.020836998, Final residual = 5.3837847e-06, No Iterations 2
DILUPBiCG:  Solving for Uz, Initial residual = 0.018316296, Final residual = 1.9616583e-06, No Iterations 2
DILUPBiCG:  Solving for h, Initial residual = 0.0037037456, Final residual = 2.3501241e-06, No Iterations 5
GAMG:  Solving for p_rgh, Initial residual = 0.012497439, Final residual = 1.4008954e-06, No Iterations 4
time step continuity errors : sum local = 2.3261466e-05, global = -7.6346829e-06, cumulative = 0.00058476285
ExecutionTime = 1.53 s  ClockTime = 2 s
Inflow      : 7.377462e-05 [kg/s]
Outflow     : 7.3768252e-05 [kg/s]
EnergyInflow  : 21.797611 [W]
EnergyOutflow : 22.032974 [W]
EnergyBalance : 0.23536227 [W]
rho max/avg/min : 1.201708 1.0530462 0.78613588
T   max/avg/min : 448.86456 342.21027 293.68463
P   max/avg/min : 101324.9 101316.15 101307.39
Prg max/avg/min : 101325 101323.86 101319.01
U   max/avg/min : 0.43580877 0.14318521 0
Prg max-min : 5.9827067
 
sngrad(rho) :7.0138233e-07 2.0750636e-07 -1.1683095e-07
 
Iteration Number = 47

DILUPBiCG:  Solving for Ux, Initial residual = 0.030364875, Final residual = 1.1036e-07, No Iterations 3
DILUPBiCG:  Solving for Uy, Initial residual = 0.022114242, Final residual = 6.0276787e-06, No Iterations 2
DILUPBiCG:  Solving for Uz, Initial residual = 0.0172633, Final residual = 1.8652863e-06, No Iterations 2
DILUPBiCG:  Solving for h, Initial residual = 0.0035580029, Final residual = 1.8875915e-06, No Iterations 5
GAMG:  Solving for p_rgh, Initial residual = 0.012136426, Final residual = 1.0149218e-05, No Iterations 3
time step continuity errors : sum local = 0.00017000328, global = -4.7241455e-05, cumulative = 0.00053752139
ExecutionTime = 1.57 s  ClockTime = 2 s
Inflow      : 7.3726056e-05 [kg/s]
Outflow     : 7.3686656e-05 [kg/s]
EnergyInflow  : 21.783263 [W]
EnergyOutflow : 22.021224 [W]
EnergyBalance : 0.23796125 [W]
rho max/avg/min : 1.2017081 1.0518207 0.78452953
T   max/avg/min : 449.78362 342.72916 293.68461
P   max/avg/min : 101324.9 101316.15 101307.39
Prg max/avg/min : 101325 101323.85 101318.99
U   max/avg/min : 0.44331143 0.14682186 0
Prg max-min : 6.007094
 
sngrad(rho) :6.804785e-07 1.9698943e-07 -1.2362893e-07
 
Iteration Number = 48

DILUPBiCG:  Solving for Ux, Initial residual = 0.033084359, Final residual = 1.014393e-07, No Iterations 3
DILUPBiCG:  Solving for Uy, Initial residual = 0.021877306, Final residual = 7.6525833e-06, No Iterations 2
DILUPBiCG:  Solving for Uz, Initial residual = 0.016490618, Final residual = 1.7927259e-06, No Iterations 2
DILUPBiCG:  Solving for h, Initial residual = 0.003420986, Final residual = 1.6516923e-06, No Iterations 5
GAMG:  Solving for p_rgh, Initial residual = 0.011755049, Final residual = 6.7113408e-06, No Iterations 3
time step continuity errors : sum local = 0.00011340497, global = -3.610891e-05, cumulative = 0.00050141248
ExecutionTime = 1.6 s  ClockTime = 2 s
Inflow      : 7.3570108e-05 [kg/s]
Outflow     : 7.3539993e-05 [kg/s]
EnergyInflow  : 21.737186 [W]
EnergyOutflow : 21.99014 [W]
EnergyBalance : 0.25295376 [W]
rho max/avg/min : 1.2017074 1.0506617 0.78297213
T   max/avg/min : 450.67825 343.2258 293.68478
P   max/avg/min : 101324.9 101316.15 101307.39
Prg max/avg/min : 101325 101323.85 101318.97
U   max/avg/min : 0.4504302 0.15038498 0
Prg max-min : 6.0311135
 
sngrad(rho) :6.6178602e-07 1.8894022e-07 -1.2225953e-07
 
Iteration Number = 49

DILUPBiCG:  Solving for Ux, Initial residual = 0.029553828, Final residual = 8.4846338e-06, No Iterations 2
DILUPBiCG:  Solving for Uy, Initial residual = 0.023122598, Final residual = 1.2587879e-06, No Iterations 3
DILUPBiCG:  Solving for Uz, Initial residual = 0.015660221, Final residual = 1.6960221e-06, No Iterations 2
DILUPBiCG:  Solving for h, Initial residual = 0.0032899081, Final residual = 1.4637858e-06, No Iterations 5
GAMG:  Solving for p_rgh, Initial residual = 0.011420456, Final residual = 4.1270497e-06, No Iterations 3
time step continuity errors : sum local = 7.0333688e-05, global = -1.1082206e-05, cumulative = 0.00049033028
ExecutionTime = 1.63 s  ClockTime = 2 s
Inflow      : 7.3272254e-05 [kg/s]
Outflow     : 7.3263011e-05 [kg/s]
EnergyInflow  : 21.649181 [W]
EnergyOutflow : 21.920301 [W]
EnergyBalance : 0.27111996 [W]
rho max/avg/min : 1.2017061 1.0495672 0.78146176
T   max/avg/min : 451.54925 343.70064 293.68511
P   max/avg/min : 101324.9 101316.16 101307.4
Prg max/avg/min : 101325 101323.84 101318.95
U   max/avg/min : 0.457176 0.15384584 0
Prg max-min : 6.0537771
 
sngrad(rho) :6.3292791e-07 1.7291518e-07 -1.4720737e-07
 
Iteration Number = 50

DILUPBiCG:  Solving for Ux, Initial residual = 0.034684751, Final residual = 1.4397685e-05, No Iterations 2
DILUPBiCG:  Solving for Uy, Initial residual = 0.025011575, Final residual = 2.0104601e-05, No Iterations 2
DILUPBiCG:  Solving for Uz, Initial residual = 0.015464541, Final residual = 1.6944539e-06, No Iterations 2
DILUPBiCG:  Solving for h, Initial residual = 0.0031663557, Final residual = 1.3969736e-06, No Iterations 5
GAMG:  Solving for p_rgh, Initial residual = 0.01102899, Final residual = 9.6682571e-06, No Iterations 3
time step continuity errors : sum local = 0.00016615207, global = -3.0945717e-05, cumulative = 0.00045938456
ExecutionTime = 1.66 s  ClockTime = 2 s
Inflow      : 7.2926902e-05 [kg/s]
Outflow     : 7.2901093e-05 [kg/s]
EnergyInflow  : 21.547143 [W]
EnergyOutflow : 21.824961 [W]
EnergyBalance : 0.27781805 [W]
rho max/avg/min : 1.2017041 1.0485339 0.77999667
T   max/avg/min : 452.39734 344.15448 293.68559
P   max/avg/min : 101324.9 101316.16 101307.4
Prg max/avg/min : 101325.01 101323.83 101318.93
U   max/avg/min : 0.46355484 0.15721662 0
Prg max-min : 6.0763268
 
sngrad(rho) :6.0554489e-07 1.6253963e-07 -1.4058527e-07
 
Iteration Number = 51

DILUPBiCG:  Solving for Ux, Initial residual = 0.034136298, Final residual = 1.0134725e-05, No Iterations 2
DILUPBiCG:  Solving for Uy, Initial residual = 0.025863194, Final residual = 7.4525585e-06, No Iterations 2
DILUPBiCG:  Solving for Uz, Initial residual = 0.014873171, Final residual = 1.630459e-06, No Iterations 2
DILUPBiCG:  Solving for h, Initial residual = 0.0030505847, Final residual = 1.4515128e-06, No Iterations 5
GAMG:  Solving for p_rgh, Initial residual = 0.010642669, Final residual = 6.3219173e-06, No Iterations 3
time step continuity errors : sum local = 0.00010959143, global = 1.6928008e-05, cumulative = 0.00047631257
ExecutionTime = 1.69 s  ClockTime = 2 s
Inflow      : 7.2526318e-05 [kg/s]
Outflow     : 7.2540436e-05 [kg/s]
EnergyInflow  : 21.428785 [W]
EnergyOutflow : 21.729865 [W]
EnergyBalance : 0.30107944 [W]
rho max/avg/min : 1.2017018 1.0475592 0.7785752
T   max/avg/min : 453.22319 344.58789 293.68584
P   max/avg/min : 101324.9 101316.16 101307.4
Prg max/avg/min : 101325.01 101323.82 101318.91
U   max/avg/min : 0.4696146 0.16053561 0
Prg max-min : 6.0982795
 
sngrad(rho) :5.8307839e-07 1.5372703e-07 -1.4378271e-07
 
Iteration Number = 52

DILUPBiCG:  Solving for Ux, Initial residual = 0.029404169, Final residual = 9.0071493e-06, No Iterations 2
DILUPBiCG:  Solving for Uy, Initial residual = 0.026312193, Final residual = 7.2541306e-06, No Iterations 2
DILUPBiCG:  Solving for Uz, Initial residual = 0.014088049, Final residual = 1.531338e-06, No Iterations 2
DILUPBiCG:  Solving for h, Initial residual = 0.0029384613, Final residual = 1.6373046e-06, No Iterations 5
GAMG:  Solving for p_rgh, Initial residual = 0.010233627, Final residual = 4.1535168e-06, No Iterations 4
time step continuity errors : sum local = 7.2622852e-05, global = -3.4690696e-06, cumulative = 0.0004728435
ExecutionTime = 1.72 s  ClockTime = 2 s
Inflow      : 7.2092062e-05 [kg/s]
Outflow     : 7.2089169e-05 [kg/s]
EnergyInflow  : 21.300479 [W]
EnergyOutflow : 21.607725 [W]
EnergyBalance : 0.30724626 [W]
rho max/avg/min : 1.2016992 1.0466401 0.77719572
T   max/avg/min : 454.02753 345.00168 293.68583
P   max/avg/min : 101324.9 101316.16 101307.4
Prg max/avg/min : 101325.01 101323.81 101318.89
U   max/avg/min : 0.47547172 0.16378876 0
Prg max-min : 6.119215
 
sngrad(rho) :5.5454337e-07 1.3786139e-07 -1.8005446e-07
 
Iteration Number = 53

DILUPBiCG:  Solving for Ux, Initial residual = 0.034330561, Final residual = 7.9147898e-06, No Iterations 2
DILUPBiCG:  Solving for Uy, Initial residual = 0.02541135, Final residual = 7.2529613e-06, No Iterations 2
DILUPBiCG:  Solving for Uz, Initial residual = 0.013640974, Final residual = 1.4938689e-06, No Iterations 2
DILUPBiCG:  Solving for h, Initial residual = 0.0028311597, Final residual = 1.9661743e-06, No Iterations 5
GAMG:  Solving for p_rgh, Initial residual = 0.0098467, Final residual = 1.2990905e-06, No Iterations 4
time step continuity errors : sum local = 2.2900448e-05, global = -1.0205117e-05, cumulative = 0.00046263838
ExecutionTime = 1.76 s  ClockTime = 2 s
Inflow      : 7.1624687e-05 [kg/s]
Outflow     : 7.1616176e-05 [kg/s]
EnergyInflow  : 21.162388 [W]
EnergyOutflow : 21.47874 [W]
EnergyBalance : 0.31635198 [W]
rho max/avg/min : 1.2016963 1.0457742 0.77585677
T   max/avg/min : 454.81094 345.39643 293.68584
P   max/avg/min : 101324.91 101316.16 101307.4
Prg max/avg/min : 101325.01 101323.81 101318.87
U   max/avg/min : 0.48128197 0.16697712 0
Prg max-min : 6.1398525
 
sngrad(rho) :5.2612047e-07 1.2739701e-07 -1.7554815e-07
 
Iteration Number = 54

DILUPBiCG:  Solving for Ux, Initial residual = 0.028718771, Final residual = 8.0661002e-06, No Iterations 2
DILUPBiCG:  Solving for Uy, Initial residual = 0.026169176, Final residual = 3.9980628e-07, No Iterations 3
DILUPBiCG:  Solving for Uz, Initial residual = 0.013078304, Final residual = 1.4310169e-06, No Iterations 2
DILUPBiCG:  Solving for h, Initial residual = 0.0027284279, Final residual = 2.4202582e-06, No Iterations 5
GAMG:  Solving for p_rgh, Initial residual = 0.0094456073, Final residual = 5.8195439e-06, No Iterations 3
time step continuity errors : sum local = 0.00010338676, global = 4.7227633e-05, cumulative = 0.00050986601
ExecutionTime = 1.79 s  ClockTime = 2 s
Inflow      : 7.1183047e-05 [kg/s]
Outflow     : 7.1222435e-05 [kg/s]
EnergyInflow  : 21.0319 [W]
EnergyOutflow : 21.373034 [W]
EnergyBalance : 0.34113404 [W]
rho max/avg/min : 1.2016933 1.0449585 0.77455692
T   max/avg/min : 455.57409 345.77291 293.68584
P   max/avg/min : 101324.91 101316.16 101307.4
Prg max/avg/min : 101325 101323.8 101318.84
U   max/avg/min : 0.48688017 0.17014462 0
Prg max-min : 6.1599963
 
sngrad(rho) :5.0261618e-07 1.1863551e-07 -1.8123434e-07
 
Iteration Number = 55

DILUPBiCG:  Solving for Ux, Initial residual = 0.02898951, Final residual = 7.7154743e-06, No Iterations 2
DILUPBiCG:  Solving for Uy, Initial residual = 0.025977369, Final residual = 8.2080244e-06, No Iterations 2
DILUPBiCG:  Solving for Uz, Initial residual = 0.012086584, Final residual = 1.3019081e-06, No Iterations 2
DILUPBiCG:  Solving for h, Initial residual = 0.0026288045, Final residual = 1.940289e-06, No Iterations 6
GAMG:  Solving for p_rgh, Initial residual = 0.0090700854, Final residual = 9.5594809e-07, No Iterations 4
time step continuity errors : sum local = 1.7119455e-05, global = 3.2585507e-06, cumulative = 0.00051312456
ExecutionTime = 1.81 s  ClockTime = 2 s
Inflow      : 7.0815662e-05 [kg/s]
Outflow     : 7.0818379e-05 [kg/s]
EnergyInflow  : 20.923351 [W]
EnergyOutflow : 21.264037 [W]
EnergyBalance : 0.34068567 [W]
rho max/avg/min : 1.2016902 1.0441912 0.77329504
T   max/avg/min : 456.31738 346.13162 293.68582
P   max/avg/min : 101324.91 101316.16 101307.4
Prg max/avg/min : 101325 101323.79 101318.83
U   max/avg/min : 0.49230223 0.17327724 0
Prg max-min : 6.179244
 
sngrad(rho) :4.7816359e-07 1.03656e-07 -2.2495492e-07
 
Iteration Number = 56

DILUPBiCG:  Solving for Ux, Initial residual = 0.027345197, Final residual = 5.8199854e-06, No Iterations 2
DILUPBiCG:  Solving for Uy, Initial residual = 0.026862541, Final residual = 1.4345212e-05, No Iterations 2
DILUPBiCG:  Solving for Uz, Initial residual = 0.011580388, Final residual = 1.2515241e-06, No Iterations 2
DILUPBiCG:  Solving for h, Initial residual = 0.0025310995, Final residual = 8.2055261e-08, No Iterations 7
GAMG:  Solving for p_rgh, Initial residual = 0.0087135686, Final residual = 7.0134505e-06, No Iterations 3
time step continuity errors : sum local = 0.00012642294, global = 3.2123756e-05, cumulative = 0.00054524832
ExecutionTime = 1.84 s  ClockTime = 2 s
Inflow      : 7.0463797e-05 [kg/s]
Outflow     : 7.0490589e-05 [kg/s]
EnergyInflow  : 20.819389 [W]
EnergyOutflow : 21.177161 [W]
EnergyBalance : 0.35777226 [W]
rho max/avg/min : 1.2016872 1.0434697 0.77207031
T   max/avg/min : 457.0411 346.47324 293.68581
P   max/avg/min : 101324.91 101316.16 101307.4
Prg max/avg/min : 101325 101323.78 101318.8
U   max/avg/min : 0.49762171 0.17637806 0
Prg max-min : 6.1981959
 
sngrad(rho) :4.4949542e-07 9.3726292e-08 -2.2681047e-07
 
Iteration Number = 57

DILUPBiCG:  Solving for Ux, Initial residual = 0.026659758, Final residual = 6.4543993e-06, No Iterations 2
DILUPBiCG:  Solving for Uy, Initial residual = 0.026218764, Final residual = 9.0511516e-06, No Iterations 2
DILUPBiCG:  Solving for Uz, Initial residual = 0.010865314, Final residual = 1.1584718e-06, No Iterations 2
DILUPBiCG:  Solving for h, Initial residual = 0.0024373978, Final residual = 2.341392e-06, No Iterations 6
GAMG:  Solving for p_rgh, Initial residual = 0.0083619149, Final residual = 5.5411457e-06, No Iterations 3
time step continuity errors : sum local = 0.00010048183, global = 2.1871543e-05, cumulative = 0.00056711986
ExecutionTime = 1.88 s  ClockTime = 2 s
Inflow      : 7.0267199e-05 [kg/s]
Outflow     : 7.028544e-05 [kg/s]
EnergyInflow  : 20.761301 [W]
EnergyOutflow : 21.126393 [W]
EnergyBalance : 0.36509142 [W]
rho max/avg/min : 1.2016841 1.0427924 0.7708804
T   max/avg/min : 457.74636 346.79825 293.68578
P   max/avg/min : 101324.91 101316.15 101307.4
Prg max/avg/min : 101325 101323.77 101318.78
U   max/avg/min : 0.50326514 0.179508 0
Prg max-min : 6.2167488
 
sngrad(rho) :4.2714786e-07 8.5507164e-08 -2.2360959e-07
 
Iteration Number = 58

DILUPBiCG:  Solving for Ux, Initial residual = 0.02082859, Final residual = 7.09076e-06, No Iterations 2
DILUPBiCG:  Solving for Uy, Initial residual = 0.025022141, Final residual = 1.4976766e-05, No Iterations 2
DILUPBiCG:  Solving for Uz, Initial residual = 0.0097465469, Final residual = 1.0242363e-06, No Iterations 2
DILUPBiCG:  Solving for h, Initial residual = 0.0023439921, Final residual = 1.218303e-06, No Iterations 5
GAMG:  Solving for p_rgh, Initial residual = 0.0080179622, Final residual = 4.1512193e-06, No Iterations 3
time step continuity errors : sum local = 7.5737534e-05, global = -2.1837614e-05, cumulative = 0.00054528225
ExecutionTime = 1.91 s  ClockTime = 2 s
Inflow      : 7.0037074e-05 [kg/s]
Outflow     : 7.0018862e-05 [kg/s]
EnergyInflow  : 20.693308 [W]
EnergyOutflow : 21.057192 [W]
EnergyBalance : 0.36388406 [W]
rho max/avg/min : 1.2016812 1.0421569 0.76972566
T   max/avg/min : 458.43286 347.10722 293.68575
P   max/avg/min : 101324.91 101316.16 101307.4
Prg max/avg/min : 101325 101323.77 101318.77
U   max/avg/min : 0.50883091 0.18255968 0
Prg max-min : 6.2343371
 
sngrad(rho) :4.0538334e-07 7.0262988e-08 -2.791867e-07
 
Iteration Number = 59

DILUPBiCG:  Solving for Ux, Initial residual = 0.026083631, Final residual = 4.8887515e-06, No Iterations 2
DILUPBiCG:  Solving for Uy, Initial residual = 0.0248323, Final residual = 1.3395022e-05, No Iterations 2
DILUPBiCG:  Solving for Uz, Initial residual = 0.010063277, Final residual = 1.0776727e-06, No Iterations 2
DILUPBiCG:  Solving for h, Initial residual = 0.0022546232, Final residual = 1.3908323e-06, No Iterations 5
GAMG:  Solving for p_rgh, Initial residual = 0.0077285326, Final residual = 2.6523606e-06, No Iterations 4
time step continuity errors : sum local = 4.8514994e-05, global = 5.3707209e-06, cumulative = 0.00055065297
ExecutionTime = 1.94 s  ClockTime = 2 s
Inflow      : 6.9824453e-05 [kg/s]
Outflow     : 6.9828932e-05 [kg/s]
EnergyInflow  : 20.630486 [W]
EnergyOutflow : 21.010178 [W]
EnergyBalance : 0.37969191 [W]
rho max/avg/min : 1.2016783 1.0415613 0.76860439
T   max/avg/min : 459.10146 347.40078 293.68573
P   max/avg/min : 101324.91 101316.15 101307.4
Prg max/avg/min : 101325 101323.76 101318.75
U   max/avg/min : 0.51459126 0.18557938 0
Prg max-min : 6.2517618
 
sngrad(rho) :3.7926778e-07 6.2455858e-08 -2.748796e-07
 
Iteration Number = 60

DILUPBiCG:  Solving for Ux, Initial residual = 0.019078929, Final residual = 7.737711e-06, No Iterations 2
DILUPBiCG:  Solving for Uy, Initial residual = 0.025403767, Final residual = 8.3678278e-06, No Iterations 2
DILUPBiCG:  Solving for Uz, Initial residual = 0.0090250126, Final residual = 9.5453108e-07, No Iterations 2
DILUPBiCG:  Solving for h, Initial residual = 0.0021686479, Final residual = 1.7874137e-06, No Iterations 5
GAMG:  Solving for p_rgh, Initial residual = 0.0074083975, Final residual = 1.0922978e-06, No Iterations 4
time step continuity errors : sum local = 2.0080834e-05, global = -3.0111847e-06, cumulative = 0.00054764179
ExecutionTime = 1.97 s  ClockTime = 2 s
Inflow      : 6.975841e-05 [kg/s]
Outflow     : 6.9755899e-05 [kg/s]
EnergyInflow  : 20.610973 [W]
EnergyOutflow : 20.997673 [W]
EnergyBalance : 0.38669996 [W]
rho max/avg/min : 1.2016756 1.0410033 0.76751534
T   max/avg/min : 459.75262 347.67961 293.6857
P   max/avg/min : 101324.91 101316.15 101307.4
Prg max/avg/min : 101324.99 101323.75 101318.73
U   max/avg/min : 0.52065331 0.18861766 0
Prg max-min : 6.2688757
 
sngrad(rho) :3.5808995e-07 5.6012975e-08 -2.6173346e-07
 
Iteration Number = 61

DILUPBiCG:  Solving for Ux, Initial residual = 0.020318644, Final residual = 1.4268664e-05, No Iterations 2
DILUPBiCG:  Solving for Uy, Initial residual = 0.024689087, Final residual = 3.6973888e-07, No Iterations 3
DILUPBiCG:  Solving for Uz, Initial residual = 0.0085346613, Final residual = 9.0006067e-07, No Iterations 2
DILUPBiCG:  Solving for h, Initial residual = 0.0020845391, Final residual = 1.1789093e-06, No Iterations 6
GAMG:  Solving for p_rgh, Initial residual = 0.007141291, Final residual = 4.9185382e-06, No Iterations 3
time step continuity errors : sum local = 9.0712593e-05, global = -2.722503e-06, cumulative = 0.00054491928
ExecutionTime = 2 s  ClockTime = 2 s
Inflow      : 6.9567387e-05 [kg/s]
Outflow     : 6.9565117e-05 [kg/s]
EnergyInflow  : 20.554533 [W]
EnergyOutflow : 20.950031 [W]
EnergyBalance : 0.39549748 [W]
rho max/avg/min : 1.2016731 1.0404812 0.76645758
T   max/avg/min : 460.38705 347.94422 293.68567
P   max/avg/min : 101324.91 101316.16 101307.4
Prg max/avg/min : 101325 101323.75 101318.72
U   max/avg/min : 0.52674747 0.19155681 0
Prg max-min : 6.2847874
 
sngrad(rho) :3.3967471e-07 3.9248227e-08 -3.3152984e-07
 
Iteration Number = 62

DILUPBiCG:  Solving for Ux, Initial residual = 0.021039458, Final residual = 3.6363421e-06, No Iterations 2
DILUPBiCG:  Solving for Uy, Initial residual = 0.025113002, Final residual = 8.0863187e-06, No Iterations 2
DILUPBiCG:  Solving for Uz, Initial residual = 0.0087343925, Final residual = 9.3825854e-07, No Iterations 2
DILUPBiCG:  Solving for h, Initial residual = 0.0020039816, Final residual = 1.0692953e-06, No Iterations 6
GAMG:  Solving for p_rgh, Initial residual = 0.0069568827, Final residual = 2.1859504e-06, No Iterations 4
time step continuity errors : sum local = 4.0371831e-05, global = 2.0079667e-05, cumulative = 0.00056499895
ExecutionTime = 2.03 s  ClockTime = 2 s
Inflow      : 6.9464897e-05 [kg/s]
Outflow     : 6.9481643e-05 [kg/s]
EnergyInflow  : 20.524251 [W]
EnergyOutflow : 20.933576 [W]
EnergyBalance : 0.40932531 [W]
rho max/avg/min : 1.2016707 1.0399937 0.76543067
T   max/avg/min : 461.00474 348.19504 293.68566
P   max/avg/min : 101324.91 101316.15 101307.4
Prg max/avg/min : 101324.99 101323.74 101318.69
U   max/avg/min : 0.53288593 0.19447954 0
Prg max-min : 6.3010237
 
sngrad(rho) :3.1706588e-07 3.5814756e-08 -3.093169e-07
 
Iteration Number = 63

DILUPBiCG:  Solving for Ux, Initial residual = 0.018630419, Final residual = 1.1350646e-05, No Iterations 2
DILUPBiCG:  Solving for Uy, Initial residual = 0.023838786, Final residual = 4.9846029e-07, No Iterations 3
DILUPBiCG:  Solving for Uz, Initial residual = 0.0078702127, Final residual = 8.5237191e-07, No Iterations 2
DILUPBiCG:  Solving for h, Initial residual = 0.001926642, Final residual = 7.5376914e-07, No Iterations 6
GAMG:  Solving for p_rgh, Initial residual = 0.0066839481, Final residual = 1.4343094e-06, No Iterations 4
time step continuity errors : sum local = 2.6596197e-05, global = 1.2599752e-05, cumulative = 0.0005775987
ExecutionTime = 2.07 s  ClockTime = 2 s
Inflow      : 6.9485547e-05 [kg/s]
Outflow     : 6.9496055e-05 [kg/s]
EnergyInflow  : 20.530352 [W]
EnergyOutflow : 20.946188 [W]
EnergyBalance : 0.41583509 [W]
rho max/avg/min : 1.2016684 1.0395384 0.7644337
T   max/avg/min : 461.60587 348.43269 293.68563
P   max/avg/min : 101324.91 101316.15 101307.4
Prg max/avg/min : 101324.99 101323.74 101318.68
U   max/avg/min : 0.53969228 0.19741272 0
Prg max-min : 6.3176925
 
sngrad(rho) :2.9951303e-07 3.0449899e-08 -2.9833936e-07
 
Iteration Number = 64

DILUPBiCG:  Solving for Ux, Initial residual = 0.02059844, Final residual = 4.2579034e-06, No Iterations 2
DILUPBiCG:  Solving for Uy, Initial residual = 0.024035585, Final residual = 9.6148355e-06, No Iterations 2
DILUPBiCG:  Solving for Uz, Initial residual = 0.0075890386, Final residual = 8.3048309e-07, No Iterations 2
DILUPBiCG:  Solving for h, Initial residual = 0.0018508764, Final residual = 6.3286984e-07, No Iterations 6
GAMG:  Solving for p_rgh, Initial residual = 0.006623673, Final residual = 4.066991e-06, No Iterations 3
time step continuity errors : sum local = 7.5514234e-05, global = -1.1352792e-05, cumulative = 0.00056624591
ExecutionTime = 2.1 s  ClockTime = 2 s
Inflow      : 6.9364165e-05 [kg/s]
Outflow     : 6.9354697e-05 [kg/s]
EnergyInflow  : 20.494489 [W]
EnergyOutflow : 20.912297 [W]
EnergyBalance : 0.41780855 [W]
rho max/avg/min : 1.2016664 1.0391146 0.76346558
T   max/avg/min : 462.19082 348.6575 293.6856
P   max/avg/min : 101324.91 101316.15 101307.4
Prg max/avg/min : 101325 101323.74 101318.67
U   max/avg/min : 0.54661175 0.20023468 0
Prg max-min : 6.3311303
 
sngrad(rho) :2.8194363e-07 1.2470292e-08 -3.8423586e-07
 
Iteration Number = 65

DILUPBiCG:  Solving for Ux, Initial residual = 0.027322701, Final residual = 6.9597521e-06, No Iterations 2
DILUPBiCG:  Solving for Uy, Initial residual = 0.025371293, Final residual = 3.1457499e-07, No Iterations 3
DILUPBiCG:  Solving for Uz, Initial residual = 0.0077284662, Final residual = 8.4478191e-07, No Iterations 2
DILUPBiCG:  Solving for h, Initial residual = 0.0017780381, Final residual = 6.0712246e-07, No Iterations 6
GAMG:  Solving for p_rgh, Initial residual = 0.0066402339, Final residual = 1.9558182e-06, No Iterations 4
time step continuity errors : sum local = 3.633562e-05, global = 1.6720298e-05, cumulative = 0.00058296621
ExecutionTime = 2.13 s  ClockTime = 2 s
Inflow      : 6.932818e-05 [kg/s]
Outflow     : 6.9342125e-05 [kg/s]
EnergyInflow  : 20.483857 [W]
EnergyOutflow : 20.915934 [W]
EnergyBalance : 0.43207779 [W]
rho max/avg/min : 1.2016645 1.0387204 0.762526
T   max/avg/min : 462.76002 348.87004 293.68559
P   max/avg/min : 101324.91 101316.15 101307.4
Prg max/avg/min : 101324.99 101323.73 101318.65
U   max/avg/min : 0.55356783 0.20305103 0
Prg max-min : 6.3485407
 
sngrad(rho) :2.6282217e-07 1.5032235e-08 -3.2986431e-07
 
Iteration Number = 66

DILUPBiCG:  Solving for Ux, Initial residual = 0.032953376, Final residual = 9.2033651e-06, No Iterations 2
DILUPBiCG:  Solving for Uy, Initial residual = 0.024152383, Final residual = 9.7695135e-06, No Iterations 2
DILUPBiCG:  Solving for Uz, Initial residual = 0.0071102066, Final residual = 8.1384998e-07, No Iterations 2
DILUPBiCG:  Solving for h, Initial residual = 0.0017093854, Final residual = 3.2886199e-07, No Iterations 6
GAMG:  Solving for p_rgh, Initial residual = 0.0067819089, Final residual = 1.2307076e-06, No Iterations 4
time step continuity errors : sum local = 2.2940023e-05, global = -1.9374667e-07, cumulative = 0.00058277246
[...]
ExecutionTime = 6.3 s  ClockTime = 7 s
Inflow      : 5.3351632e-05 [kg/s]
Outflow     : 5.3350813e-05 [kg/s]
EnergyInflow  : 15.763391 [W]
EnergyOutflow : 16.372158 [W]
EnergyBalance : 0.60876756 [W]
rho max/avg/min : 1.2016456 1.0461447 0.73972642
T   max/avg/min : 477.01723 347.58558 293.68556
P   max/avg/min : 101324.91 101316.16 101307.4
Prg max/avg/min : 101325 101323.77 101318.24
U   max/avg/min : 1.2965173 0.35338554 0
Prg max-min : 6.7553862
 
sngrad(rho) :6.5475729e-09 -7.5608409e-09 -3.6177891e-08
 
Iteration Number = 198

DILUPBiCG:  Solving for Ux, Initial residual = 0.018234547, Final residual = 2.612389e-06, No Iterations 2
DILUPBiCG:  Solving for Uy, Initial residual = 0.021494908, Final residual = 8.6718613e-06, No Iterations 2
DILUPBiCG:  Solving for Uz, Initial residual = 0.0010446464, Final residual = 1.469712e-07, No Iterations 2
DILUPBiCG:  Solving for h, Initial residual = 0.00018605921, Final residual = 1.0587568e-07, No Iterations 7
GAMG:  Solving for p_rgh, Initial residual = 0.0013073715, Final residual = 5.0974986e-07, No Iterations 4
time step continuity errors : sum local = 9.5899941e-06, global = 3.2279957e-06, cumulative = 0.00022570254
ExecutionTime = 6.34 s  ClockTime = 7 s
Inflow      : 5.3252398e-05 [kg/s]
Outflow     : 5.325509e-05 [kg/s]
EnergyInflow  : 15.734071 [W]
EnergyOutflow : 16.34382 [W]
EnergyBalance : 0.6097492 [W]
rho max/avg/min : 1.2016456 1.0462131 0.73975749
T   max/avg/min : 476.9972 347.55705 293.68557
P   max/avg/min : 101324.91 101316.16 101307.4
Prg max/avg/min : 101325 101323.77 101318.24
U   max/avg/min : 1.2985055 0.35378839 0
Prg max-min : 6.756013
 
sngrad(rho) :6.0281572e-09 -7.5149945e-09 -3.5554117e-08
 
Iteration Number = 199

DILUPBiCG:  Solving for Ux, Initial residual = 0.016691977, Final residual = 2.4021687e-06, No Iterations 2
DILUPBiCG:  Solving for Uy, Initial residual = 0.021340081, Final residual = 1.321975e-05, No Iterations 2
DILUPBiCG:  Solving for Uz, Initial residual = 0.00098439274, Final residual = 1.2882981e-07, No Iterations 2
DILUPBiCG:  Solving for h, Initial residual = 0.00018407954, Final residual = 9.1866188e-08, No Iterations 7
GAMG:  Solving for p_rgh, Initial residual = 0.0011545876, Final residual = 4.4786874e-07, No Iterations 4
time step continuity errors : sum local = 8.432428e-06, global = -3.0311688e-06, cumulative = 0.00022267137
ExecutionTime = 6.37 s  ClockTime = 7 s
Inflow      : 5.3134981e-05 [kg/s]
Outflow     : 5.3132453e-05 [kg/s]
EnergyInflow  : 15.699378 [W]
EnergyOutflow : 16.307529 [W]
EnergyBalance : 0.60815062 [W]
rho max/avg/min : 1.2016456 1.0462806 0.73978901
T   max/avg/min : 476.97687 347.52886 293.68556
P   max/avg/min : 101324.91 101316.16 101307.4
Prg max/avg/min : 101325 101323.77 101318.24
U   max/avg/min : 1.3004443 0.35418027 0
Prg max-min : 6.7544421
 
sngrad(rho) :5.2651377e-09 -7.5624177e-09 -3.4952424e-08
 
Iteration Number = 200

DILUPBiCG:  Solving for Ux, Initial residual = 0.013675604, Final residual = 1.9500843e-06, No Iterations 2
DILUPBiCG:  Solving for Uy, Initial residual = 0.020275948, Final residual = 7.3630297e-06, No Iterations 2
DILUPBiCG:  Solving for Uz, Initial residual = 0.0010279816, Final residual = 1.4737092e-07, No Iterations 2
DILUPBiCG:  Solving for h, Initial residual = 0.00018215403, Final residual = 8.8972573e-08, No Iterations 7
GAMG:  Solving for p_rgh, Initial residual = 0.0010214554, Final residual = 7.0353082e-07, No Iterations 3
time step continuity errors : sum local = 1.3246471e-05, global = 6.3783454e-07, cumulative = 0.0002233092
ExecutionTime = 6.4 s  ClockTime = 7 s
Inflow      : 5.3042541e-05 [kg/s]
Outflow     : 5.3043073e-05 [kg/s]
EnergyInflow  : 15.672066 [W]
EnergyOutflow : 16.281065 [W]
EnergyBalance : 0.60899878 [W]
rho max/avg/min : 1.2016456 1.0463472 0.73982098
T   max/avg/min : 476.95626 347.50102 293.68557
P   max/avg/min : 101324.91 101316.15 101307.4
Prg max/avg/min : 101325 101323.77 101318.24
U   max/avg/min : 1.3023355 0.35457633 0
Prg max-min : 6.7552946
 
sngrad(rho) :4.7194692e-09 -7.5227805e-09 -3.4356734e-08
 
Iteration Number = 201

DILUPBiCG:  Solving for Ux, Initial residual = 0.012436316, Final residual = 1.8029647e-06, No Iterations 2
DILUPBiCG:  Solving for Uy, Initial residual = 0.019617451, Final residual = 9.474337e-06, No Iterations 2
DILUPBiCG:  Solving for Uz, Initial residual = 0.00095624923, Final residual = 1.2934716e-07, No Iterations 2
DILUPBiCG:  Solving for h, Initial residual = 0.00018018986, Final residual = 7.7855581e-08, No Iterations 7
GAMG:  Solving for p_rgh, Initial residual = 0.00090495891, Final residual = 8.509402e-07, No Iterations 3
time step continuity errors : sum local = 1.6033057e-05, global = -8.0389472e-07, cumulative = 0.00022250531
ExecutionTime = 6.43 s  ClockTime = 7 s
Inflow      : 5.29275e-05 [kg/s]
Outflow     : 5.292683e-05 [kg/s]
EnergyInflow  : 15.638076 [W]
EnergyOutflow : 16.246664 [W]
EnergyBalance : 0.60858801 [W]
rho max/avg/min : 1.2016456 1.046413 0.73985333
T   max/avg/min : 476.9354 347.47352 293.68556
P   max/avg/min : 101324.91 101316.16 101307.4
Prg max/avg/min : 101325 101323.77 101318.24
U   max/avg/min : 1.3041791 0.35496046 0
Prg max-min : 6.7534849
 
sngrad(rho) :3.9545043e-09 -7.5805179e-09 -3.3778107e-08
 
Iteration Number = 202

DILUPBiCG:  Solving for Ux, Initial residual = 0.01002644, Final residual = 1.4811291e-06, No Iterations 2
DILUPBiCG:  Solving for Uy, Initial residual = 0.01987462, Final residual = 1.0461167e-05, No Iterations 2
DILUPBiCG:  Solving for Uz, Initial residual = 0.0010091591, Final residual = 1.477846e-07, No Iterations 2
DILUPBiCG:  Solving for h, Initial residual = 0.00017829294, Final residual = 7.0907814e-08, No Iterations 7
GAMG:  Solving for p_rgh, Initial residual = 0.00079628383, Final residual = 3.8537441e-07, No Iterations 4
time step continuity errors : sum local = 7.2649866e-06, global = 2.6572335e-06, cumulative = 0.00022516254
ExecutionTime = 6.46 s  ClockTime = 7 s
Inflow      : 5.2840545e-05 [kg/s]
Outflow     : 5.2842761e-05 [kg/s]
EnergyInflow  : 15.612384 [W]
EnergyOutflow : 16.221769 [W]
EnergyBalance : 0.60938495 [W]
rho max/avg/min : 1.2016456 1.046478 0.73988608
T   max/avg/min : 476.91429 347.44636 293.68557
P   max/avg/min : 101324.91 101316.15 101307.4
Prg max/avg/min : 101325 101323.77 101318.24
U   max/avg/min : 1.3059764 0.35534909 0
Prg max-min : 6.7544617
 
sngrad(rho) :3.2726035e-09 -7.5670754e-09 -3.322791e-08
 
Iteration Number = 203

DILUPBiCG:  Solving for Ux, Initial residual = 0.0089625523, Final residual = 1.3614318e-06, No Iterations 2
DILUPBiCG:  Solving for Uy, Initial residual = 0.020487921, Final residual = 1.844234e-05, No Iterations 2
DILUPBiCG:  Solving for Uz, Initial residual = 0.00093212952, Final residual = 1.2894434e-07, No Iterations 2
DILUPBiCG:  Solving for h, Initial residual = 0.00017634876, Final residual = 6.3125544e-08, No Iterations 7
GAMG:  Solving for p_rgh, Initial residual = 0.00070304988, Final residual = 8.8809665e-07, No Iterations 3
time step continuity errors : sum local = 1.675431e-05, global = 2.0547801e-07, cumulative = 0.00022536802
ExecutionTime = 6.49 s  ClockTime = 7 s
Inflow      : 5.2742445e-05 [kg/s]
Outflow     : 5.2742616e-05 [kg/s]
EnergyInflow  : 15.583399 [W]
EnergyOutflow : 16.192124 [W]
EnergyBalance : 0.60872566 [W]
rho max/avg/min : 1.2016456 1.0465421 0.73991916
T   max/avg/min : 476.89297 347.41953 293.68556
P   max/avg/min : 101324.91 101316.16 101307.4
Prg max/avg/min : 101325 101323.77 101318.24
U   max/avg/min : 1.3077287 0.35573055 0
Prg max-min : 6.7528368
 
sngrad(rho) :2.6626713e-09 -7.6084009e-09 -3.2665894e-08
 
Iteration Number = 204

DILUPBiCG:  Solving for Ux, Initial residual = 0.0070541741, Final residual = 1.1541998e-06, No Iterations 2
DILUPBiCG:  Solving for Uy, Initial residual = 0.02207749, Final residual = 1.0060676e-05, No Iterations 2
DILUPBiCG:  Solving for Uz, Initial residual = 0.00096839735, Final residual = 1.3961063e-07, No Iterations 2
DILUPBiCG:  Solving for h, Initial residual = 0.00017445031, Final residual = 5.6293057e-08, No Iterations 7
GAMG:  Solving for p_rgh, Initial residual = 0.00061046017, Final residual = 2.598646e-07, No Iterations 4
time step continuity errors : sum local = 4.9037055e-06, global = 1.8662824e-06, cumulative = 0.0002272343
ExecutionTime = 6.52 s  ClockTime = 7 s
Inflow      : 5.2661618e-05 [kg/s]
Outflow     : 5.2663175e-05 [kg/s]
EnergyInflow  : 15.559518 [W]
EnergyOutflow : 16.168598 [W]
EnergyBalance : 0.6090801 [W]
rho max/avg/min : 1.2016456 1.0466054 0.73995259
T   max/avg/min : 476.87143 347.39302 293.68556
P   max/avg/min : 101324.91 101316.15 101307.4
Prg max/avg/min : 101325 101323.77 101318.24
U   max/avg/min : 1.3094362 0.3561123 0
Prg max-min : 6.7534167
 
sngrad(rho) :1.8433605e-09 -7.6240316e-09 -3.2143949e-08
 
Iteration Number = 205

DILUPBiCG:  Solving for Ux, Initial residual = 0.006319368, Final residual = 1.0354272e-06, No Iterations 2
DILUPBiCG:  Solving for Uy, Initial residual = 0.020826792, Final residual = 8.625808e-06, No Iterations 2
DILUPBiCG:  Solving for Uz, Initial residual = 0.0009142712, Final residual = 1.278573e-07, No Iterations 2
DILUPBiCG:  Solving for h, Initial residual = 0.00017253488, Final residual = 4.9704502e-08, No Iterations 7
GAMG:  Solving for p_rgh, Initial residual = 0.00054082192, Final residual = 8.2314759e-07, No Iterations 3
time step continuity errors : sum local = 1.5541253e-05, global = 3.9692955e-07, cumulative = 0.00022763123
ExecutionTime = 6.55 s  ClockTime = 7 s
Inflow      : 5.2566538e-05 [kg/s]
Outflow     : 5.2566869e-05 [kg/s]
EnergyInflow  : 15.531425 [W]
EnergyOutflow : 16.140088 [W]
EnergyBalance : 0.60866298 [W]
rho max/avg/min : 1.2016456 1.046668 0.7399863
T   max/avg/min : 476.8497 347.36685 293.68556
P   max/avg/min : 101324.91 101316.16 101307.4
Prg max/avg/min : 101325 101323.78 101318.24
U   max/avg/min : 1.3111001 0.35648613 0
Prg max-min : 6.7520189
 
sngrad(rho) :1.2212069e-09 -7.6731334e-09 -3.162741e-08
 
Iteration Number = 206

DILUPBiCG:  Solving for Ux, Initial residual = 0.0049627457, Final residual = 9.0098386e-07, No Iterations 2
DILUPBiCG:  Solving for Uy, Initial residual = 0.020189896, Final residual = 8.174128e-06, No Iterations 2
DILUPBiCG:  Solving for Uz, Initial residual = 0.00094206747, Final residual = 1.3659121e-07, No Iterations 2
DILUPBiCG:  Solving for h, Initial residual = 0.00017066158, Final residual = 4.4162959e-08, No Iterations 7
GAMG:  Solving for p_rgh, Initial residual = 0.00047736957, Final residual = 6.7218397e-07, No Iterations 3
time step continuity errors : sum local = 1.2693751e-05, global = 2.3176714e-07, cumulative = 0.000227863
ExecutionTime = 6.58 s  ClockTime = 7 s
Inflow      : 5.2484412e-05 [kg/s]
Outflow     : 5.2484605e-05 [kg/s]
EnergyInflow  : 15.50716 [W]
EnergyOutflow : 16.115727 [W]
EnergyBalance : 0.60856743 [W]
rho max/avg/min : 1.2016456 1.0467297 0.74002032
T   max/avg/min : 476.82778 347.341 293.68556
P   max/avg/min : 101324.91 101316.16 101307.4
Prg max/avg/min : 101325 101323.78 101318.24
U   max/avg/min : 1.3127214 0.35685801 0
Prg max-min : 6.7522869
 
sngrad(rho) :4.8421006e-10 -7.6829835e-09 -3.1127709e-08
 
Iteration Number = 207

DILUPBiCG:  Solving for Ux, Initial residual = 0.0045443924, Final residual = 8.0314256e-07, No Iterations 2
DILUPBiCG:  Solving for Uy, Initial residual = 0.020020373, Final residual = 2.0555594e-06, No Iterations 3
DILUPBiCG:  Solving for Uz, Initial residual = 0.00089962872, Final residual = 1.2693422e-07, No Iterations 2
DILUPBiCG:  Solving for h, Initial residual = 0.00016878539, Final residual = 3.9143647e-08, No Iterations 7
GAMG:  Solving for p_rgh, Initial residual = 0.00042928183, Final residual = 3.3568944e-07, No Iterations 3
time step continuity errors : sum local = 6.343918e-06, global = 5.8596448e-07, cumulative = 0.00022844896
ExecutionTime = 6.61 s  ClockTime = 7 s
Inflow      : 5.2390424e-05 [kg/s]
Outflow     : 5.2390913e-05 [kg/s]
EnergyInflow  : 15.47939 [W]
EnergyOutflow : 16.08799 [W]
EnergyBalance : 0.60860009 [W]
rho max/avg/min : 1.2016456 1.0467906 0.74005458
T   max/avg/min : 476.8057 347.31547 293.68555
P   max/avg/min : 101324.91 101316.16 101307.4
Prg max/avg/min : 101325 101323.78 101318.25
U   max/avg/min : 1.314301 0.3572236 0
Prg max-min : 6.7511717
 
sngrad(rho) :-1.2312421e-10 -7.7298434e-09 -3.0637303e-08
 
Iteration Number = 208

DILUPBiCG:  Solving for Ux, Initial residual = 0.0035959935, Final residual = 7.7625648e-07, No Iterations 2
DILUPBiCG:  Solving for Uy, Initial residual = 0.020800916, Final residual = 5.72048e-06, No Iterations 3
DILUPBiCG:  Solving for Uz, Initial residual = 0.00091727339, Final residual = 1.3296417e-07, No Iterations 2
DILUPBiCG:  Solving for h, Initial residual = 0.00016694421, Final residual = 1.5726533e-07, No Iterations 6
GAMG:  Solving for p_rgh, Initial residual = 0.0003873674, Final residual = 2.0459861e-07, No Iterations 3
time step continuity errors : sum local = 3.8679086e-06, global = -3.0974338e-07, cumulative = 0.00022813922
ExecutionTime = 6.65 s  ClockTime = 7 s
Inflow      : 5.2298188e-05 [kg/s]
Outflow     : 5.229793e-05 [kg/s]
EnergyInflow  : 15.452138 [W]
EnergyOutflow : 16.060462 [W]
EnergyBalance : 0.60832466 [W]
rho max/avg/min : 1.2016456 1.0468508 0.74008916
T   max/avg/min : 476.78343 347.29025 293.68555
P   max/avg/min : 101324.91 101316.16 101307.4
Prg max/avg/min : 101325 101323.78 101318.25
U   max/avg/min : 1.3158397 0.35758371 0
Prg max-min : 6.7509987
 
sngrad(rho) :-1.2421984e-10 -7.7519346e-09 -3.0172077e-08
 
Iteration Number = 209

DILUPBiCG:  Solving for Ux, Initial residual = 0.0033868262, Final residual = 7.2789111e-07, No Iterations 2
DILUPBiCG:  Solving for Uy, Initial residual = 0.020627955, Final residual = 1.1034893e-05, No Iterations 2
DILUPBiCG:  Solving for Uz, Initial residual = 0.00089266407, Final residual = 1.2734266e-07, No Iterations 2
DILUPBiCG:  Solving for h, Initial residual = 0.00016511262, Final residual = 1.3002416e-07, No Iterations 6
GAMG:  Solving for p_rgh, Initial residual = 0.00035743171, Final residual = 2.3125891e-07, No Iterations 3
time step continuity errors : sum local = 4.3750208e-06, global = -1.3258846e-07, cumulative = 0.00022800663
ExecutionTime = 6.67 s  ClockTime = 7 s
Inflow      : 5.2195064e-05 [kg/s]
Outflow     : 5.2194954e-05 [kg/s]
EnergyInflow  : 15.421669 [W]
EnergyOutflow : 16.029982 [W]
EnergyBalance : 0.60831363 [W]
rho max/avg/min : 1.2016456 1.0469102 0.74012395
T   max/avg/min : 476.76102 347.26534 293.68555
P   max/avg/min : 101324.91 101316.16 101307.4
Prg max/avg/min : 101325 101323.78 101318.25
U   max/avg/min : 1.3173385 0.35793647 0
Prg max-min : 6.7500747
 
sngrad(rho) :-1.2497804e-10 -7.7812922e-09 -2.9710164e-08
 
Iteration Number = 210

DILUPBiCG:  Solving for Ux, Initial residual = 0.0027638346, Final residual = 1.5285456e-06, No Iterations 2
DILUPBiCG:  Solving for Uy, Initial residual = 0.020539577, Final residual = 1.6811212e-05, No Iterations 2
DILUPBiCG:  Solving for Uz, Initial residual = 0.00090522077, Final residual = 1.315183e-07, No Iterations 2
DILUPBiCG:  Solving for h, Initial residual = 0.00016331115, Final residual = 1.0792476e-07, No Iterations 6
GAMG:  Solving for p_rgh, Initial residual = 0.0003294929, Final residual = 2.1956209e-07, No Iterations 3
time step continuity errors : sum local = 4.1567663e-06, global = -1.5731373e-06, cumulative = 0.00022643349
ExecutionTime = 6.7 s  ClockTime = 7 s
Inflow      : 5.2085383e-05 [kg/s]
Outflow     : 5.2084071e-05 [kg/s]
EnergyInflow  : 15.389262 [W]
EnergyOutflow : 15.997166 [W]
EnergyBalance : 0.60790386 [W]
rho max/avg/min : 1.2016456 1.0469688 0.74015892
T   max/avg/min : 476.73849 347.24075 293.68555
P   max/avg/min : 101324.91 101316.16 101307.4
Prg max/avg/min : 101325 101323.78 101318.25
U   max/avg/min : 1.3187981 0.35828182 0
Prg max-min : 6.7496216
 
sngrad(rho) :-1.256295e-10 -7.8041864e-09 -2.926808e-08
 
Iteration Number = 211

DILUPBiCG:  Solving for Ux, Initial residual = 0.0026940466, Final residual = 1.2272855e-06, No Iterations 2
DILUPBiCG:  Solving for Uy, Initial residual = 0.020761484, Final residual = 2.0694247e-07, No Iterations 3
DILUPBiCG:  Solving for Uz, Initial residual = 0.00089494556, Final residual = 1.2917376e-07, No Iterations 2
DILUPBiCG:  Solving for h, Initial residual = 0.00016153806, Final residual = 8.9082932e-08, No Iterations 6
GAMG:  Solving for p_rgh, Initial residual = 0.00031146122, Final residual = 2.5320493e-07, No Iterations 3
time step continuity errors : sum local = 4.8007039e-06, global = -1.152912e-07, cumulative = 0.0002263182
ExecutionTime = 6.74 s  ClockTime = 7 s
Inflow      : 5.1961603e-05 [kg/s]
Outflow     : 5.1961507e-05 [kg/s]
EnergyInflow  : 15.352689 [W]
EnergyOutflow : 15.960897 [W]
EnergyBalance : 0.60820784 [W]
rho max/avg/min : 1.2016456 1.0470266 0.74019407
T   max/avg/min : 476.71585 347.21647 293.68556
P   max/avg/min : 101324.91 101316.16 101307.4
Prg max/avg/min : 101325 101323.78 101318.25
U   max/avg/min : 1.3202193 0.35861771 0
Prg max-min : 6.7487107
 
sngrad(rho) :-1.2624058e-10 -7.8277934e-09 -2.8858724e-08
 
Iteration Number = 212

DILUPBiCG:  Solving for Ux, Initial residual = 0.0022829603, Final residual = 5.503229e-08, No Iterations 3
DILUPBiCG:  Solving for Uy, Initial residual = 0.020380787, Final residual = 7.6205856e-06, No Iterations 2
DILUPBiCG:  Solving for Uz, Initial residual = 0.00090916687, Final residual = 1.3366841e-07, No Iterations 2
DILUPBiCG:  Solving for h, Initial residual = 0.00015977361, Final residual = 7.3042472e-08, No Iterations 6
GAMG:  Solving for p_rgh, Initial residual = 0.00029602336, Final residual = 2.8168473e-07, No Iterations 3
time step continuity errors : sum local = 5.3431799e-06, global = -2.3608086e-06, cumulative = 0.0002239574
ExecutionTime = 6.77 s  ClockTime = 7 s
Inflow      : 5.1830644e-05 [kg/s]
Outflow     : 5.1828676e-05 [kg/s]
EnergyInflow  : 15.313996 [W]
EnergyOutflow : 15.921595 [W]
EnergyBalance : 0.60759916 [W]
rho max/avg/min : 1.2016456 1.0470837 0.74022938
T   max/avg/min : 476.69312 347.1925 293.68556
P   max/avg/min : 101324.91 101316.16 101307.4
Prg max/avg/min : 101325 101323.78 101318.25
U   max/avg/min : 1.321603 0.35894571 0
Prg max-min : 6.7482006
 
sngrad(rho) :-1.268077e-10 -7.8245794e-09 -2.8447107e-08
 
Iteration Number = 213

DILUPBiCG:  Solving for Ux, Initial residual = 0.0023694431, Final residual = 1.7638248e-06, No Iterations 2
DILUPBiCG:  Solving for Uy, Initial residual = 0.020552432, Final residual = 7.7227004e-06, No Iterations 2
DILUPBiCG:  Solving for Uz, Initial residual = 0.00090192897, Final residual = 1.3122004e-07, No Iterations 2
DILUPBiCG:  Solving for h, Initial residual = 0.00015804259, Final residual = 6.0091379e-08, No Iterations 6
GAMG:  Solving for p_rgh, Initial residual = 0.00049994472, Final residual = 4.5335408e-07, No Iterations 7
time step continuity errors : sum local = 8.6102393e-06, global = -5.6906311e-07, cumulative = 0.00022338833
ExecutionTime = 6.8 s  ClockTime = 7 s
Inflow      : 4.8076323e-05 [kg/s]
Outflow     : 4.8075848e-05 [kg/s]
EnergyInflow  : 14.204736 [W]
EnergyOutflow : 14.812717 [W]
EnergyBalance : 0.60798072 [W]
rho max/avg/min : 1.2016456 1.04714 0.74026483
T   max/avg/min : 476.67029 347.16884 293.68569
P   max/avg/min : 101324.91 101316.21 101307.49
Prg max/avg/min : 101325.08 101323.83 101318.34
U   max/avg/min : 1.3229217 0.35800572 -0.026882725
Prg max-min : 6.7482802
 
sngrad(rho) :4.3994364e-08 -1.568328e-08 -4.6696694e-07
 
Iteration Number = 214

DILUPBiCG:  Solving for Ux, Initial residual = 0.028999546, Final residual = 1.5868771e-07, No Iterations 3
DILUPBiCG:  Solving for Uy, Initial residual = 0.020929917, Final residual = 7.9955516e-06, No Iterations 2
DILUPBiCG:  Solving for Uz, Initial residual = 0.0062508256, Final residual = 3.0638965e-06, No Iterations 2
DILUPBiCG:  Solving for h, Initial residual = 0.00015976427, Final residual = 8.024017e-08, No Iterations 6
