/*---------------------------------------------------------------------------*\
| =========                 |                                                 |
| \\      /  F ield         | OpenFOAM: The Open Source CFD Toolbox           |
|  \\    /   O peration     | Version:  4.0                                   |
|   \\  /    A nd           | Web:      www.OpenFOAM.org                      |
|    \\/     M anipulation  |                                                 |
\*---------------------------------------------------------------------------*/
Build  : 4.0-665f1db4c1f1
Exec   : pupoBuoyantSimpleFoam
Date   : Sep 27 2016
Time   : 00:11:49
Host   : "FAB2000"
PID    : 24683
Case   : /home/pedro/Documents/ThesisProject/OpenFoam/validation1rod/fvDOM
nProcs : 1
sigFpe : Enabling floating point exception trapping (FOAM_SIGFPE).
fileModificationChecking : Monitoring run-time modified files using timeStampMaster
allowSystemOperations : Allowing user-supplied system call operations

// * * * * * * * * * * * * * * * * * * * * * * * * * * * * * * * * * * * * * //
Create time

--> FOAM Warning : 
    From function void* Foam::dlOpen(const Foam::fileName&, bool)
    in file POSIX.C at line 1037
    dlopen error : radiatingwall.so: cannot open shared object file: No such file or directory
--> FOAM Warning : 
    From function bool Foam::dlLibraryTable::open(const Foam::fileName&, bool)
    in file db/dynamicLibrary/dlLibraryTable/dlLibraryTable.C at line 97
    could not load "radiatingwall.so"
Create mesh for time = 0


SIMPLE: convergence criteria
    field p_rgh	 tolerance 1e-06
    field Uz	 tolerance 1e-06
    field h	 tolerance 1e-06

Reading thermophysical properties

Selecting thermodynamics package 
{
    type            heRhoThermo;
    mixture         pureMixture;
    transport       sutherland;
    thermo          hConst;
    equationOfState perfectGas;
    specie          specie;
    energy          sensibleEnthalpy;
}


Reading g

Reading hRef
Calculating field g.h

Selecting turbulence model type laminar
No MRF models present

Selecting radiationModel fvDOM
Selecting absorptionEmissionModel constantAbsorptionEmission
Selecting scatterModel none
fvDOM : Allocated 16 rays with average orientation:
	I0 : omega : 	0.78539816
	I1 : omega : 	0.78539816
	I2 : omega : 	0.78539816
	I3 : omega : 	0.78539816
	I4 : omega : 	0.78539816
	I5 : omega : 	0.78539816
	I6 : omega : 	0.78539816
	I7 : omega : 	0.78539816
	I8 : omega : 	0.78539816
	I9 : omega : 	0.78539816
	I10 : omega : 	0.78539816
	I11 : omega : 	0.78539816
	I12 : omega : 	0.78539816
	I13 : omega : 	0.78539816
	I14 : omega : 	0.78539816
	I15 : omega : 	0.78539816

 
rho max/avg/min : 1.2016452 1.2015414 1.2014377
T   max/avg/min : 293.7 293.7 293.7
P   max/avg/min : 101324.91 101316.16 101307.41
Prg max/avg/min : 101325 101325 101325
U   max/avg/min : 0 0 0
 
sngrad(rho) :-0.00013977519 -0.00013977519 -0.00013977519
 
No finite volume options present


Starting Iteration loop

Iteration Number = 1

DILUPBiCG:  Solving for Ux, Initial residual = 2.3034354e-10, Final residual = 2.3034354e-10, No Iterations 0
DILUPBiCG:  Solving for Uy, Initial residual = 4.8698736e-07, Final residual = 7.725469e-11, No Iterations 2
DILUPBiCG:  Solving for Uz, Initial residual = 1, Final residual = 0.00034288199, No Iterations 2
DILUPBiCG:  Solving for h, Initial residual = 1, Final residual = 0.00046001801, No Iterations 1
Radiation solver iter: 0
GAMG:  Solving for ILambda_0_0, Initial residual = 1, Final residual = 2.0869829e-17, No Iterations 1
GAMG:  Solving for ILambda_1_0, Initial residual = 1, Final residual = 4.922782e-17, No Iterations 1
GAMG:  Solving for ILambda_2_0, Initial residual = 1, Final residual = 7.2230864e-17, No Iterations 1
GAMG:  Solving for ILambda_3_0, Initial residual = 1, Final residual = 3.2788222e-17, No Iterations 1
GAMG:  Solving for ILambda_4_0, Initial residual = 1, Final residual = 3.8080056e-08, No Iterations 2
GAMG:  Solving for ILambda_5_0, Initial residual = 1, Final residual = 5.1444584e-06, No Iterations 2
GAMG:  Solving for ILambda_6_0, Initial residual = 1, Final residual = 5.1444584e-06, No Iterations 2
GAMG:  Solving for ILambda_7_0, Initial residual = 1, Final residual = 3.8080056e-08, No Iterations 2
GAMG:  Solving for ILambda_8_0, Initial residual = 1, Final residual = 4.9821591e-06, No Iterations 1
GAMG:  Solving for ILambda_9_0, Initial residual = 1, Final residual = 9.1357471e-05, No Iterations 1
GAMG:  Solving for ILambda_10_0, Initial residual = 1, Final residual = 9.1357471e-05, No Iterations 1
GAMG:  Solving for ILambda_11_0, Initial residual = 1, Final residual = 4.9821591e-06, No Iterations 1
GAMG:  Solving for ILambda_12_0, Initial residual = 1, Final residual = 3.7319417e-17, No Iterations 1
GAMG:  Solving for ILambda_13_0, Initial residual = 1, Final residual = 1.4257819e-16, No Iterations 1
GAMG:  Solving for ILambda_14_0, Initial residual = 1, Final residual = 1.4241133e-16, No Iterations 1
GAMG:  Solving for ILambda_15_0, Initial residual = 1, Final residual = 3.7701277e-17, No Iterations 1
Radiation solver iter: 1
GAMG:  Solving for ILambda_0_0, Initial residual = 0.09071261, Final residual = 3.3102368e-18, No Iterations 1
GAMG:  Solving for ILambda_1_0, Initial residual = 0.059106182, Final residual = 1.2903022e-17, No Iterations 1
GAMG:  Solving for ILambda_2_0, Initial residual = 0.059106182, Final residual = 1.1404575e-17, No Iterations 1
GAMG:  Solving for ILambda_3_0, Initial residual = 0.09071261, Final residual = 7.1125474e-18, No Iterations 1
GAMG:  Solving for ILambda_4_0, Initial residual = 0.40223023, Final residual = 9.285614e-05, No Iterations 1
GAMG:  Solving for ILambda_5_0, Initial residual = 0.29593154, Final residual = 1.3022516e-06, No Iterations 2
GAMG:  Solving for ILambda_6_0, Initial residual = 0.29593154, Final residual = 1.3022516e-06, No Iterations 2
GAMG:  Solving for ILambda_7_0, Initial residual = 0.40223023, Final residual = 9.285614e-05, No Iterations 1
GAMG:  Solving for ILambda_8_0, Initial residual = 0.090712645, Final residual = 3.2411335e-07, No Iterations 1
GAMG:  Solving for ILambda_9_0, Initial residual = 0.059106682, Final residual = 5.514799e-06, No Iterations 1
GAMG:  Solving for ILambda_10_0, Initial residual = 0.059106682, Final residual = 5.514799e-06, No Iterations 1
GAMG:  Solving for ILambda_11_0, Initial residual = 0.090712645, Final residual = 3.2411335e-07, No Iterations 1
GAMG:  Solving for ILambda_12_0, Initial residual = 0.40223023, Final residual = 1.3957378e-17, No Iterations 1
GAMG:  Solving for ILambda_13_0, Initial residual = 0.29593179, Final residual = 4.796896e-17, No Iterations 1
GAMG:  Solving for ILambda_14_0, Initial residual = 0.29593179, Final residual = 4.4883523e-17, No Iterations 1
GAMG:  Solving for ILambda_15_0, Initial residual = 0.40223023, Final residual = 7.9530936e-18, No Iterations 1
Radiation solver iter: 2
GAMG:  Solving for ILambda_0_0, Initial residual = 0.037287772, Final residual = 1.5119517e-18, No Iterations 1
GAMG:  Solving for ILambda_1_0, Initial residual = 0.027761264, Final residual = 8.9532243e-18, No Iterations 1
GAMG:  Solving for ILambda_2_0, Initial residual = 0.027761264, Final residual = 1.041156e-17, No Iterations 1
GAMG:  Solving for ILambda_3_0, Initial residual = 0.037287772, Final residual = 1.4418487e-18, No Iterations 1
GAMG:  Solving for ILambda_4_0, Initial residual = 0.16200955, Final residual = 3.3304057e-05, No Iterations 1
GAMG:  Solving for ILambda_5_0, Initial residual = 0.1753761, Final residual = 6.4894083e-07, No Iterations 2
GAMG:  Solving for ILambda_6_0, Initial residual = 0.1753761, Final residual = 6.4894083e-07, No Iterations 2
GAMG:  Solving for ILambda_7_0, Initial residual = 0.16200955, Final residual = 3.3304057e-05, No Iterations 1
GAMG:  Solving for ILambda_8_0, Initial residual = 0.037287759, Final residual = 1.4709652e-07, No Iterations 1
GAMG:  Solving for ILambda_9_0, Initial residual = 0.02776116, Final residual = 1.9887466e-06, No Iterations 1
GAMG:  Solving for ILambda_10_0, Initial residual = 0.02776116, Final residual = 1.9887466e-06, No Iterations 1
GAMG:  Solving for ILambda_11_0, Initial residual = 0.037287759, Final residual = 1.4709652e-07, No Iterations 1
GAMG:  Solving for ILambda_12_0, Initial residual = 0.16201095, Final residual = 2.7212682e-17, No Iterations 1
GAMG:  Solving for ILambda_13_0, Initial residual = 0.1753761, Final residual = 6.6255111e-17, No Iterations 1
GAMG:  Solving for ILambda_14_0, Initial residual = 0.1753761, Final residual = 6.7033082e-17, No Iterations 1
GAMG:  Solving for ILambda_15_0, Initial residual = 0.16201095, Final residual = 2.9724881e-17, No Iterations 1
Radiation solver iter: 3
GAMG:  Solving for ILambda_0_0, Initial residual = 0.024144081, Final residual = 4.8182779e-18, No Iterations 1
GAMG:  Solving for ILambda_1_0, Initial residual = 0.020151655, Final residual = 9.6882993e-18, No Iterations 1
GAMG:  Solving for ILambda_2_0, Initial residual = 0.020151655, Final residual = 8.8534182e-18, No Iterations 1
GAMG:  Solving for ILambda_3_0, Initial residual = 0.024144081, Final residual = 3.6496902e-18, No Iterations 1
GAMG:  Solving for ILambda_4_0, Initial residual = 0.12092176, Final residual = 1.4134926e-05, No Iterations 1
GAMG:  Solving for ILambda_5_0, Initial residual = 0.12443352, Final residual = 5.8309014e-07, No Iterations 2
GAMG:  Solving for ILambda_6_0, Initial residual = 0.12443352, Final residual = 5.8309014e-07, No Iterations 2
GAMG:  Solving for ILambda_7_0, Initial residual = 0.12092176, Final residual = 1.4134926e-05, No Iterations 1
GAMG:  Solving for ILambda_8_0, Initial residual = 0.024144062, Final residual = 1.0217348e-07, No Iterations 1
GAMG:  Solving for ILambda_9_0, Initial residual = 0.020151759, Final residual = 1.128422e-06, No Iterations 1
GAMG:  Solving for ILambda_10_0, Initial residual = 0.020151759, Final residual = 1.128422e-06, No Iterations 1
GAMG:  Solving for ILambda_11_0, Initial residual = 0.024144062, Final residual = 1.0217348e-07, No Iterations 1
GAMG:  Solving for ILambda_12_0, Initial residual = 0.1209149, Final residual = 1.2758475e-17, No Iterations 1
GAMG:  Solving for ILambda_13_0, Initial residual = 0.12443356, Final residual = 7.8472075e-17, No Iterations 1
GAMG:  Solving for ILambda_14_0, Initial residual = 0.12443356, Final residual = 7.4380444e-17, No Iterations 1
GAMG:  Solving for ILambda_15_0, Initial residual = 0.1209149, Final residual = 1.1214157e-17, No Iterations 1
Radiation solver iter: 4
GAMG:  Solving for ILambda_0_0, Initial residual = 0.018112266, Final residual = 5.0392637e-18, No Iterations 1
GAMG:  Solving for ILambda_1_0, Initial residual = 0.015807147, Final residual = 1.0539461e-17, No Iterations 1
GAMG:  Solving for ILambda_2_0, Initial residual = 0.015807147, Final residual = 1.2396492e-17, No Iterations 1
GAMG:  Solving for ILambda_3_0, Initial residual = 0.018112266, Final residual = 6.4848697e-18, No Iterations 1
GAMG:  Solving for ILambda_4_0, Initial residual = 0.097202135, Final residual = 4.9610275e-06, No Iterations 1
GAMG:  Solving for ILambda_5_0, Initial residual = 0.10330088, Final residual = 2.9249586e-07, No Iterations 2
GAMG:  Solving for ILambda_6_0, Initial residual = 0.10330088, Final residual = 2.9249586e-07, No Iterations 2
GAMG:  Solving for ILambda_7_0, Initial residual = 0.097202135, Final residual = 4.9610275e-06, No Iterations 1
GAMG:  Solving for ILambda_8_0, Initial residual = 0.018112247, Final residual = 7.8406504e-08, No Iterations 1
GAMG:  Solving for ILambda_9_0, Initial residual = 0.015807114, Final residual = 9.2395452e-07, No Iterations 1
GAMG:  Solving for ILambda_10_0, Initial residual = 0.015807114, Final residual = 9.2395452e-07, No Iterations 1
GAMG:  Solving for ILambda_11_0, Initial residual = 0.018112247, Final residual = 7.8406504e-08, No Iterations 1
GAMG:  Solving for ILambda_12_0, Initial residual = 0.09719974, Final residual = 1.3478435e-17, No Iterations 1
GAMG:  Solving for ILambda_13_0, Initial residual = 0.10330095, Final residual = 7.651791e-17, No Iterations 1
GAMG:  Solving for ILambda_14_0, Initial residual = 0.10330095, Final residual = 7.5891842e-17, No Iterations 1
GAMG:  Solving for ILambda_15_0, Initial residual = 0.09719974, Final residual = 1.5114469e-17, No Iterations 1
Radiation solver iter: 5
GAMG:  Solving for ILambda_0_0, Initial residual = 0.014410656, Final residual = 6.1063975e-18, No Iterations 1
GAMG:  Solving for ILambda_1_0, Initial residual = 0.0133255, Final residual = 9.950181e-18, No Iterations 1
GAMG:  Solving for ILambda_2_0, Initial residual = 0.0133255, Final residual = 1.148561e-17, No Iterations 1
GAMG:  Solving for ILambda_3_0, Initial residual = 0.014410656, Final residual = 2.9822308e-18, No Iterations 1
GAMG:  Solving for ILambda_4_0, Initial residual = 0.076971625, Final residual = 1.9420525e-06, No Iterations 1
GAMG:  Solving for ILambda_5_0, Initial residual = 0.083395835, Final residual = 8.9311991e-05, No Iterations 1
GAMG:  Solving for ILambda_6_0, Initial residual = 0.083395835, Final residual = 8.9311991e-05, No Iterations 1
GAMG:  Solving for ILambda_7_0, Initial residual = 0.076971625, Final residual = 1.9420525e-06, No Iterations 1
GAMG:  Solving for ILambda_8_0, Initial residual = 0.01441065, Final residual = 6.3677982e-08, No Iterations 1
GAMG:  Solving for ILambda_9_0, Initial residual = 0.013325717, Final residual = 8.2359996e-07, No Iterations 1
GAMG:  Solving for ILambda_10_0, Initial residual = 0.013325717, Final residual = 8.2359996e-07, No Iterations 1
GAMG:  Solving for ILambda_11_0, Initial residual = 0.01441065, Final residual = 6.3677982e-08, No Iterations 1
GAMG:  Solving for ILambda_12_0, Initial residual = 0.076963424, Final residual = 1.4194304e-17, No Iterations 1
GAMG:  Solving for ILambda_13_0, Initial residual = 0.083395898, Final residual = 8.0704796e-17, No Iterations 1
GAMG:  Solving for ILambda_14_0, Initial residual = 0.083395898, Final residual = 7.8841087e-17, No Iterations 1
GAMG:  Solving for ILambda_15_0, Initial residual = 0.076963424, Final residual = 1.4350804e-17, No Iterations 1
Radiation solver iter: 6
GAMG:  Solving for ILambda_0_0, Initial residual = 0.012161759, Final residual = 3.1704843e-18, No Iterations 1
GAMG:  Solving for ILambda_1_0, Initial residual = 0.011748141, Final residual = 1.2054784e-17, No Iterations 1
GAMG:  Solving for ILambda_2_0, Initial residual = 0.011748141, Final residual = 1.0757733e-17, No Iterations 1
GAMG:  Solving for ILambda_3_0, Initial residual = 0.012161759, Final residual = 4.0785165e-18, No Iterations 1
GAMG:  Solving for ILambda_4_0, Initial residual = 0.065729267, Final residual = 4.8572874e-06, No Iterations 1
GAMG:  Solving for ILambda_5_0, Initial residual = 0.067364297, Final residual = 5.5396424e-05, No Iterations 1
GAMG:  Solving for ILambda_6_0, Initial residual = 0.067364297, Final residual = 5.5396424e-05, No Iterations 1
GAMG:  Solving for ILambda_7_0, Initial residual = 0.065729267, Final residual = 4.8572874e-06, No Iterations 1
GAMG:  Solving for ILambda_8_0, Initial residual = 0.012161738, Final residual = 5.7485523e-08, No Iterations 1
GAMG:  Solving for ILambda_9_0, Initial residual = 0.011748206, Final residual = 7.3650379e-07, No Iterations 1
GAMG:  Solving for ILambda_10_0, Initial residual = 0.011748206, Final residual = 7.3650379e-07, No Iterations 1
GAMG:  Solving for ILambda_11_0, Initial residual = 0.012161738, Final residual = 5.7485523e-08, No Iterations 1
GAMG:  Solving for ILambda_12_0, Initial residual = 0.06572367, Final residual = 1.5896036e-17, No Iterations 1
GAMG:  Solving for ILambda_13_0, Initial residual = 0.06736026, Final residual = 8.1177264e-17, No Iterations 1
GAMG:  Solving for ILambda_14_0, Initial residual = 0.06736026, Final residual = 8.3171104e-17, No Iterations 1
GAMG:  Solving for ILambda_15_0, Initial residual = 0.06572367, Final residual = 1.6212453e-17, No Iterations 1
Radiation solver iter: 7
GAMG:  Solving for ILambda_0_0, Initial residual = 0.010559596, Final residual = 3.8824519e-18, No Iterations 1
GAMG:  Solving for ILambda_1_0, Initial residual = 0.010727848, Final residual = 1.32694e-17, No Iterations 1
GAMG:  Solving for ILambda_2_0, Initial residual = 0.010727848, Final residual = 1.2057953e-17, No Iterations 1
GAMG:  Solving for ILambda_3_0, Initial residual = 0.010559596, Final residual = 6.0491387e-18, No Iterations 1
GAMG:  Solving for ILambda_4_0, Initial residual = 0.057343241, Final residual = 6.2831008e-06, No Iterations 1
GAMG:  Solving for ILambda_5_0, Initial residual = 0.058551785, Final residual = 5.1944473e-05, No Iterations 1
GAMG:  Solving for ILambda_6_0, Initial residual = 0.058551785, Final residual = 5.1944473e-05, No Iterations 1
GAMG:  Solving for ILambda_7_0, Initial residual = 0.057343241, Final residual = 6.2831008e-06, No Iterations 1
GAMG:  Solving for ILambda_8_0, Initial residual = 0.010559579, Final residual = 5.3665802e-08, No Iterations 1
GAMG:  Solving for ILambda_9_0, Initial residual = 0.010727949, Final residual = 6.8015874e-07, No Iterations 1
GAMG:  Solving for ILambda_10_0, Initial residual = 0.010727949, Final residual = 6.8015874e-07, No Iterations 1
GAMG:  Solving for ILambda_11_0, Initial residual = 0.010559579, Final residual = 5.3665802e-08, No Iterations 1
GAMG:  Solving for ILambda_12_0, Initial residual = 0.057338691, Final residual = 3.0053224e-17, No Iterations 1
GAMG:  Solving for ILambda_13_0, Initial residual = 0.058556618, Final residual = 9.0038696e-17, No Iterations 1
GAMG:  Solving for ILambda_14_0, Initial residual = 0.058556618, Final residual = 8.4521375e-17, No Iterations 1
GAMG:  Solving for ILambda_15_0, Initial residual = 0.057338691, Final residual = 3.2872071e-17, No Iterations 1
Radiation solver iter: 8
GAMG:  Solving for ILambda_0_0, Initial residual = 0.0092713996, Final residual = 3.9726476e-18, No Iterations 1
GAMG:  Solving for ILambda_1_0, Initial residual = 0.010030955, Final residual = 1.1883886e-17, No Iterations 1
GAMG:  Solving for ILambda_2_0, Initial residual = 0.010030955, Final residual = 1.180065e-17, No Iterations 1
GAMG:  Solving for ILambda_3_0, Initial residual = 0.0092713996, Final residual = 4.5756128e-18, No Iterations 1
GAMG:  Solving for ILambda_4_0, Initial residual = 0.05021886, Final residual = 6.8074631e-06, No Iterations 1
GAMG:  Solving for ILambda_5_0, Initial residual = 0.04973478, Final residual = 4.332159e-05, No Iterations 1
GAMG:  Solving for ILambda_6_0, Initial residual = 0.04973478, Final residual = 4.332159e-05, No Iterations 1
GAMG:  Solving for ILambda_7_0, Initial residual = 0.05021886, Final residual = 6.8074631e-06, No Iterations 1
GAMG:  Solving for ILambda_8_0, Initial residual = 0.0092713949, Final residual = 5.0675405e-08, No Iterations 1
GAMG:  Solving for ILambda_9_0, Initial residual = 0.0100311, Final residual = 6.3664055e-07, No Iterations 1
GAMG:  Solving for ILambda_10_0, Initial residual = 0.0100311, Final residual = 6.3664055e-07, No Iterations 1
GAMG:  Solving for ILambda_11_0, Initial residual = 0.0092713949, Final residual = 5.0675405e-08, No Iterations 1
GAMG:  Solving for ILambda_12_0, Initial residual = 0.050214691, Final residual = 3.5429371e-17, No Iterations 1
GAMG:  Solving for ILambda_13_0, Initial residual = 0.049739629, Final residual = 8.6791977e-17, No Iterations 1
GAMG:  Solving for ILambda_14_0, Initial residual = 0.049739629, Final residual = 9.1278339e-17, No Iterations 1
GAMG:  Solving for ILambda_15_0, Initial residual = 0.050214691, Final residual = 3.4227397e-17, No Iterations 1
Radiation solver iter: 9
GAMG:  Solving for ILambda_0_0, Initial residual = 0.0082614951, Final residual = 3.6867595e-18, No Iterations 1
GAMG:  Solving for ILambda_1_0, Initial residual = 0.0095784765, Final residual = 1.0618678e-17, No Iterations 1
GAMG:  Solving for ILambda_2_0, Initial residual = 0.0095784765, Final residual = 1.1451682e-17, No Iterations 1
GAMG:  Solving for ILambda_3_0, Initial residual = 0.0082614951, Final residual = 4.4911839e-18, No Iterations 1
GAMG:  Solving for ILambda_4_0, Initial residual = 0.044937242, Final residual = 6.6900921e-06, No Iterations 1
GAMG:  Solving for ILambda_5_0, Initial residual = 0.04430536, Final residual = 2.8403267e-05, No Iterations 1
GAMG:  Solving for ILambda_6_0, Initial residual = 0.04430536, Final residual = 2.8403267e-05, No Iterations 1
GAMG:  Solving for ILambda_7_0, Initial residual = 0.044937242, Final residual = 6.6900921e-06, No Iterations 1
GAMG:  Solving for ILambda_8_0, Initial residual = 0.0082614892, Final residual = 4.7862435e-08, No Iterations 1
GAMG:  Solving for ILambda_9_0, Initial residual = 0.0095786274, Final residual = 6.1468441e-07, No Iterations 1
GAMG:  Solving for ILambda_10_0, Initial residual = 0.0095786274, Final residual = 6.1468441e-07, No Iterations 1
GAMG:  Solving for ILambda_11_0, Initial residual = 0.0082614892, Final residual = 4.7862435e-08, No Iterations 1
GAMG:  Solving for ILambda_12_0, Initial residual = 0.044934405, Final residual = 3.1693974e-17, No Iterations 1
GAMG:  Solving for ILambda_13_0, Initial residual = 0.044322461, Final residual = 9.1263235e-17, No Iterations 1
GAMG:  Solving for ILambda_14_0, Initial residual = 0.044322461, Final residual = 9.2307101e-17, No Iterations 1
GAMG:  Solving for ILambda_15_0, Initial residual = 0.044934405, Final residual = 3.3847632e-17, No Iterations 1
GAMG:  Solving for p_rgh, Initial residual = 0.28403678, Final residual = 8.4672709e-05, No Iterations 5
time step continuity errors : sum local = 6.5307477e-06, global = -2.2727408e-06, cumulative = -2.2727408e-06
ExecutionTime = 0.52 s  ClockTime = 1 s
Inflow      : -2.5339137e-07 [kg/s]
Outflow     : -2.5528683e-07 [kg/s]
EnergyInflow  : -0.074867571 [W]
EnergyOutflow : -0.075427609 [W]
EnergyBalance : -0.00056003811 [W]
rho max/avg/min : 1.2016452 1.2010688 1.193069
T   max/avg/min : 295.76012 293.81602 293.7
P   max/avg/min : 101324.91 101316.16 101307.41
Prg max/avg/min : 101325 101325 101324.88
U   max/avg/min : 7.7355058e-06 -9.079517e-05 -0.00091931645
Prg max-min : 0.12315128
 
sngrad(rho) :1.1156761 0.062893027 -0.00013844919
 
Iteration Number = 2

DILUPBiCG:  Solving for Ux, Initial residual = 0.28018104, Final residual = 8.145549e-05, No Iterations 2
DILUPBiCG:  Solving for Uy, Initial residual = 9.3777356e-05, Final residual = 2.5253755e-08, No Iterations 2
DILUPBiCG:  Solving for Uz, Initial residual = 0.374948, Final residual = 3.2302828e-05, No Iterations 2
DILUPBiCG:  Solving for h, Initial residual = 0.69327361, Final residual = 0.00012781546, No Iterations 1
GAMG:  Solving for p_rgh, Initial residual = 0.11216526, Final residual = 7.8093008e-05, No Iterations 4
time step continuity errors : sum local = 3.1501253e-05, global = 1.4959409e-06, cumulative = -7.7679997e-07
ExecutionTime = 0.55 s  ClockTime = 1 s
Inflow      : -3.8646622e-07 [kg/s]
Outflow     : -3.8521861e-07 [kg/s]
EnergyInflow  : -0.11418616 [W]
EnergyOutflow : -0.11381754 [W]
EnergyBalance : 0.00036862272 [W]
rho max/avg/min : 1.2017273 1.2013377 1.1992792
T   max/avg/min : 294.2286 293.74986 293.67932
P   max/avg/min : 101324.91 101316.16 101307.41
Prg max/avg/min : 101325 101325 101324.97
U   max/avg/min : 1.5117022e-05 -0.00014917386 -0.00094305575
Prg max-min : 0.03334049
 
sngrad(rho) :0.28765657 0.035958732 -0.00013592832
 
Iteration Number = 3

DILUPBiCG:  Solving for Ux, Initial residual = 0.32436025, Final residual = 0.00013260481, No Iterations 2
DILUPBiCG:  Solving for Uy, Initial residual = 0.00012280815, Final residual = 4.1550814e-08, No Iterations 2
DILUPBiCG:  Solving for Uz, Initial residual = 0.093779515, Final residual = 9.4030809e-06, No Iterations 2
DILUPBiCG:  Solving for h, Initial residual = 0.29144487, Final residual = 7.8140951e-05, No Iterations 1
GAMG:  Solving for p_rgh, Initial residual = 0.052975507, Final residual = 3.034155e-05, No Iterations 3
time step continuity errors : sum local = 7.8160248e-06, global = 1.3840707e-06, cumulative = 6.0727069e-07
ExecutionTime = 0.58 s  ClockTime = 1 s
Inflow      : -2.6310811e-07 [kg/s]
Outflow     : -2.619538e-07 [kg/s]
EnergyInflow  : -0.077738502 [W]
EnergyOutflow : -0.077397445 [W]
EnergyBalance : 0.0003410571 [W]
rho max/avg/min : 1.2054891 1.2015806 1.2005496
T   max/avg/min : 293.91725 293.6905 292.76284
P   max/avg/min : 101324.91 101316.16 101307.41
Prg max/avg/min : 101325.05 101325 101324.99
U   max/avg/min : 1.7974193e-05 -0.00010601896 -0.00064799919
Prg max-min : 0.068777331
 
sngrad(rho) :0.058939746 -0.0207119 -0.39394769
 
Iteration Number = 4

DILUPBiCG:  Solving for Ux, Initial residual = 0.26053049, Final residual = 7.9344145e-05, No Iterations 2
DILUPBiCG:  Solving for Uy, Initial residual = 7.8044607e-05, Final residual = 2.1795696e-08, No Iterations 2
DILUPBiCG:  Solving for Uz, Initial residual = 0.18051469, Final residual = 1.4928174e-05, No Iterations 2
DILUPBiCG:  Solving for h, Initial residual = 0.28290764, Final residual = 6.8134103e-05, No Iterations 1
GAMG:  Solving for p_rgh, Initial residual = 0.094771797, Final residual = 5.3861569e-05, No Iterations 4
time step continuity errors : sum local = 4.7072904e-06, global = -3.6369791e-07, cumulative = 2.4357278e-07
ExecutionTime = 0.61 s  ClockTime = 1 s
Inflow      : -1.9237849e-07 [kg/s]
Outflow     : -1.9268181e-07 [kg/s]
EnergyInflow  : -0.056840571 [W]
EnergyOutflow : -0.056930191 [W]
EnergyBalance : -8.9620088e-05 [W]
rho max/avg/min : 1.2080955 1.2018255 1.2010155
T   max/avg/min : 293.80322 293.63084 292.13116
P   max/avg/min : 101324.91 101316.16 101307.41
Prg max/avg/min : 101325.09 101325 101324.99
U   max/avg/min : 1.8219214e-05 -8.0360392e-05 -0.00048585055
Prg max-min : 0.099731883
 
sngrad(rho) :0.030297258 -0.022011369 -0.26378563
 
Iteration Number = 5

DILUPBiCG:  Solving for Ux, Initial residual = 0.36066566, Final residual = 8.9108029e-05, No Iterations 2
DILUPBiCG:  Solving for Uy, Initial residual = 5.7236248e-05, Final residual = 1.4369666e-08, No Iterations 2
DILUPBiCG:  Solving for Uz, Initial residual = 0.033801541, Final residual = 4.9322555e-06, No Iterations 2
DILUPBiCG:  Solving for h, Initial residual = 0.20226459, Final residual = 5.5203062e-05, No Iterations 1
GAMG:  Solving for p_rgh, Initial residual = 0.029680528, Final residual = 2.233419e-05, No Iterations 3
time step continuity errors : sum local = 4.7633828e-06, global = 2.0323795e-06, cumulative = 2.2759523e-06
ExecutionTime = 0.64 s  ClockTime = 1 s
Inflow      : -1.4495968e-07 [kg/s]
Outflow     : -1.4326468e-07 [kg/s]
EnergyInflow  : -0.042830106 [W]
EnergyOutflow : -0.042329296 [W]
EnergyBalance : 0.00050080978 [W]
rho max/avg/min : 1.2102123 1.2020758 1.2012247
T   max/avg/min : 293.75206 293.56996 291.62017
P   max/avg/min : 101324.91 101316.16 101307.41
Prg max/avg/min : 101325.12 101325 101325
U   max/avg/min : 1.7703422e-05 -6.4918916e-05 -0.00037978582
Prg max-min : 0.12734463
 
sngrad(rho) :0.019502948 -0.022935516 -0.21003839
 
Iteration Number = 6

DILUPBiCG:  Solving for Ux, Initial residual = 0.32524387, Final residual = 6.3143564e-05, No Iterations 2
DILUPBiCG:  Solving for Uy, Initial residual = 4.7300975e-05, Final residual = 1.1113217e-08, No Iterations 2
DILUPBiCG:  Solving for Uz, Initial residual = 0.17282936, Final residual = 1.6241124e-05, No Iterations 2
DILUPBiCG:  Solving for h, Initial residual = 0.1446258, Final residual = 4.6103993e-05, No Iterations 1
GAMG:  Solving for p_rgh, Initial residual = 0.014007052, Final residual = 9.9036781e-06, No Iterations 4
time step continuity errors : sum local = 3.921022e-06, global = -4.6545774e-07, cumulative = 1.8104945e-06
ExecutionTime = 0.68 s  ClockTime = 1 s
Inflow      : -1.1030687e-07 [kg/s]
Outflow     : -1.1069506e-07 [kg/s]
EnergyInflow  : -0.032591511 [W]
EnergyOutflow : -0.032706206 [W]
EnergyBalance : -0.00011469545 [W]
rho max/avg/min : 1.2120524 1.2023319 1.2013265
T   max/avg/min : 293.72718 293.50776 291.17741
P   max/avg/min : 101324.91 101316.16 101307.41
Prg max/avg/min : 101325.15 101325.01 101325
U   max/avg/min : 1.7256878e-05 -5.367886e-05 -0.00030333145
Prg max-min : 0.15252322
 
sngrad(rho) :0.01214445 -0.037677764 -0.86966301
 
Iteration Number = 7

DILUPBiCG:  Solving for Ux, Initial residual = 0.38127036, Final residual = 5.8189857e-05, No Iterations 2
DILUPBiCG:  Solving for Uy, Initial residual = 3.8032459e-05, Final residual = 9.46577e-09, No Iterations 2
DILUPBiCG:  Solving for Uz, Initial residual = 0.06324767, Final residual = 4.1122257e-06, No Iterations 2
DILUPBiCG:  Solving for h, Initial residual = 0.11130376, Final residual = 4.3705431e-05, No Iterations 1
GAMG:  Solving for p_rgh, Initial residual = 0.0085830507, Final residual = 4.960557e-06, No Iterations 3
time step continuity errors : sum local = 2.9621369e-06, global = 1.2399337e-06, cumulative = 3.0504282e-06
ExecutionTime = 0.71 s  ClockTime = 1 s
Inflow      : -8.7629106e-08 [kg/s]
Outflow     : -8.6595002e-08 [kg/s]
EnergyInflow  : -0.025891089 [W]
EnergyOutflow : -0.02558555 [W]
EnergyBalance : 0.00030553898 [W]
rho max/avg/min : 1.2137114 1.2025936 1.2013791
T   max/avg/min : 293.71431 293.44429 290.77937
P   max/avg/min : 101324.91 101316.16 101307.41
Prg max/avg/min : 101325.17 101325.01 101325
U   max/avg/min : 1.6653131e-05 -4.9139679e-05 -0.00025305193
Prg max-min : 0.17579473
 
sngrad(rho) :0.007195073 -0.073594562 -1.0302545
 
Iteration Number = 8

DILUPBiCG:  Solving for Ux, Initial residual = 0.38282349, Final residual = 5.8158398e-05, No Iterations 2
DILUPBiCG:  Solving for Uy, Initial residual = 3.2551073e-05, Final residual = 7.134667e-09, No Iterations 2
DILUPBiCG:  Solving for Uz, Initial residual = 0.20278355, Final residual = 1.4502679e-05, No Iterations 2
DILUPBiCG:  Solving for h, Initial residual = 0.090674553, Final residual = 4.358715e-05, No Iterations 1
GAMG:  Solving for p_rgh, Initial residual = 0.0062328681, Final residual = 4.2125433e-06, No Iterations 4
time step continuity errors : sum local = 3.3376418e-06, global = -6.3320194e-07, cumulative = 2.4172263e-06
ExecutionTime = 0.74 s  ClockTime = 1 s
Inflow      : -6.8967508e-08 [kg/s]
Outflow     : -6.9495599e-08 [kg/s]
EnergyInflow  : -0.020377292 [W]
EnergyOutflow : -0.020533322 [W]
EnergyBalance : -0.00015603034 [W]
rho max/avg/min : 1.2152411 1.2028605 1.2014074
T   max/avg/min : 293.7074 293.37964 290.41333
P   max/avg/min : 101324.91 101316.16 101307.41
Prg max/avg/min : 101325.2 101325.01 101325
U   max/avg/min : 1.7127639e-05 -4.7414653e-05 -0.00021232364
Prg max-min : 0.19754949
 
sngrad(rho) :0.0038954081 -0.10460866 -1.1772172
 
Iteration Number = 9

DILUPBiCG:  Solving for Ux, Initial residual = 0.38599197, Final residual = 5.59036e-05, No Iterations 2
DILUPBiCG:  Solving for Uy, Initial residual = 2.9113516e-05, Final residual = 6.4585772e-09, No Iterations 2
DILUPBiCG:  Solving for Uz, Initial residual = 0.1369985, Final residual = 3.9856001e-06, No Iterations 2
DILUPBiCG:  Solving for h, Initial residual = 0.076781275, Final residual = 4.5481914e-05, No Iterations 1
GAMG:  Solving for p_rgh, Initial residual = 0.0050109796, Final residual = 1.6220782e-06, No Iterations 3
time step continuity errors : sum local = 1.6330359e-06, global = 3.5709995e-07, cumulative = 2.7743262e-06
ExecutionTime = 0.77 s  ClockTime = 1 s
Inflow      : -5.66769e-08 [kg/s]
Outflow     : -5.6379079e-08 [kg/s]
EnergyInflow  : -0.016745882 [W]
EnergyOutflow : -0.016657886 [W]
EnergyBalance : 8.7995069e-05 [W]
rho max/avg/min : 1.2166729 1.2031323 1.2014227
T   max/avg/min : 293.70365 293.31387 290.07156
P   max/avg/min : 101324.91 101316.16 101307.41
Prg max/avg/min : 101325.22 101325.01 101325
U   max/avg/min : 2.7142125e-05 -5.1047796e-05 -0.00018390436
Prg max-min : 0.21807378
 
sngrad(rho) :0.0018512842 -0.13546523 -1.3139478
 
Iteration Number = 10

DILUPBiCG:  Solving for Ux, Initial residual = 0.4122043, Final residual = 5.6480364e-05, No Iterations 2
DILUPBiCG:  Solving for Uy, Initial residual = 2.6121131e-05, Final residual = 6.0068416e-09, No Iterations 2
DILUPBiCG:  Solving for Uz, Initial residual = 0.2231683, Final residual = 8.5766835e-06, No Iterations 2
DILUPBiCG:  Solving for h, Initial residual = 0.066758614, Final residual = 4.8512567e-05, No Iterations 1
Radiation solver iter: 0
GAMG:  Solving for ILambda_0_0, Initial residual = 0.0076328099, Final residual = 3.3711761e-18, No Iterations 1
GAMG:  Solving for ILambda_1_0, Initial residual = 0.0094693361, Final residual = 1.2093485e-17, No Iterations 1
GAMG:  Solving for ILambda_2_0, Initial residual = 0.0094693361, Final residual = 1.0972037e-17, No Iterations 1
GAMG:  Solving for ILambda_3_0, Initial residual = 0.0076328099, Final residual = 3.3679179e-18, No Iterations 1
GAMG:  Solving for ILambda_4_0, Initial residual = 0.040595094, Final residual = 6.165246e-06, No Iterations 1
GAMG:  Solving for ILambda_5_0, Initial residual = 0.038702485, Final residual = 1.8037319e-05, No Iterations 1
GAMG:  Solving for ILambda_6_0, Initial residual = 0.038702485, Final residual = 1.8037319e-05, No Iterations 1
GAMG:  Solving for ILambda_7_0, Initial residual = 0.040595094, Final residual = 6.165246e-06, No Iterations 1
GAMG:  Solving for ILambda_8_0, Initial residual = 0.0076327934, Final residual = 4.4994723e-08, No Iterations 1
GAMG:  Solving for ILambda_9_0, Initial residual = 0.0094694482, Final residual = 5.9905704e-07, No Iterations 1
GAMG:  Solving for ILambda_10_0, Initial residual = 0.0094694482, Final residual = 5.9905704e-07, No Iterations 1
GAMG:  Solving for ILambda_11_0, Initial residual = 0.0076327934, Final residual = 4.4994723e-08, No Iterations 1
GAMG:  Solving for ILambda_12_0, Initial residual = 0.04059221, Final residual = 3.3493117e-17, No Iterations 1
GAMG:  Solving for ILambda_13_0, Initial residual = 0.038714914, Final residual = 9.7158673e-17, No Iterations 1
GAMG:  Solving for ILambda_14_0, Initial residual = 0.038714914, Final residual = 9.5585026e-17, No Iterations 1
GAMG:  Solving for ILambda_15_0, Initial residual = 0.04059221, Final residual = 3.5395006e-17, No Iterations 1
Radiation solver iter: 1
GAMG:  Solving for ILambda_0_0, Initial residual = 0.0070372238, Final residual = 4.6962307e-18, No Iterations 1
GAMG:  Solving for ILambda_1_0, Initial residual = 0.0093120027, Final residual = 1.3992629e-17, No Iterations 1
GAMG:  Solving for ILambda_2_0, Initial residual = 0.0093120027, Final residual = 1.320028e-17, No Iterations 1
GAMG:  Solving for ILambda_3_0, Initial residual = 0.0070372238, Final residual = 4.0314023e-18, No Iterations 1
GAMG:  Solving for ILambda_4_0, Initial residual = 0.03685149, Final residual = 5.4762128e-06, No Iterations 1
GAMG:  Solving for ILambda_5_0, Initial residual = 0.034506754, Final residual = 1.5466728e-05, No Iterations 1
GAMG:  Solving for ILambda_6_0, Initial residual = 0.034506754, Final residual = 1.5466728e-05, No Iterations 1
GAMG:  Solving for ILambda_7_0, Initial residual = 0.03685149, Final residual = 5.4762128e-06, No Iterations 1
GAMG:  Solving for ILambda_8_0, Initial residual = 0.0070372018, Final residual = 4.2170458e-08, No Iterations 1
GAMG:  Solving for ILambda_9_0, Initial residual = 0.0093120958, Final residual = 5.9540364e-07, No Iterations 1
GAMG:  Solving for ILambda_10_0, Initial residual = 0.0093120958, Final residual = 5.9540364e-07, No Iterations 1
GAMG:  Solving for ILambda_11_0, Initial residual = 0.0070372018, Final residual = 4.2170458e-08, No Iterations 1
GAMG:  Solving for ILambda_12_0, Initial residual = 0.036848661, Final residual = 3.2899631e-17, No Iterations 1
GAMG:  Solving for ILambda_13_0, Initial residual = 0.034523615, Final residual = 9.8857358e-17, No Iterations 1
GAMG:  Solving for ILambda_14_0, Initial residual = 0.034523615, Final residual = 1.0099153e-16, No Iterations 1
GAMG:  Solving for ILambda_15_0, Initial residual = 0.036848661, Final residual = 3.7894806e-17, No Iterations 1
Radiation solver iter: 2
GAMG:  Solving for ILambda_0_0, Initial residual = 0.0065043248, Final residual = 4.2707726e-18, No Iterations 1
GAMG:  Solving for ILambda_1_0, Initial residual = 0.0092856905, Final residual = 1.3191643e-17, No Iterations 1
GAMG:  Solving for ILambda_2_0, Initial residual = 0.0092856905, Final residual = 1.2751488e-17, No Iterations 1
GAMG:  Solving for ILambda_3_0, Initial residual = 0.0065043248, Final residual = 4.5494741e-18, No Iterations 1
GAMG:  Solving for ILambda_4_0, Initial residual = 0.033531229, Final residual = 4.7674353e-06, No Iterations 1
GAMG:  Solving for ILambda_5_0, Initial residual = 0.031025468, Final residual = 1.3378921e-05, No Iterations 1
GAMG:  Solving for ILambda_6_0, Initial residual = 0.031025468, Final residual = 1.3378921e-05, No Iterations 1
GAMG:  Solving for ILambda_7_0, Initial residual = 0.033531229, Final residual = 4.7674353e-06, No Iterations 1
GAMG:  Solving for ILambda_8_0, Initial residual = 0.0065043118, Final residual = 3.9369318e-08, No Iterations 1
GAMG:  Solving for ILambda_9_0, Initial residual = 0.0092858531, Final residual = 6.0162109e-07, No Iterations 1
GAMG:  Solving for ILambda_10_0, Initial residual = 0.0092858531, Final residual = 6.0162109e-07, No Iterations 1
GAMG:  Solving for ILambda_11_0, Initial residual = 0.0065043118, Final residual = 3.9369318e-08, No Iterations 1
GAMG:  Solving for ILambda_12_0, Initial residual = 0.033529054, Final residual = 2.8413497e-17, No Iterations 1
GAMG:  Solving for ILambda_13_0, Initial residual = 0.031036766, Final residual = 9.8691369e-17, No Iterations 1
GAMG:  Solving for ILambda_14_0, Initial residual = 0.031036766, Final residual = 1.0316296e-16, No Iterations 1
GAMG:  Solving for ILambda_15_0, Initial residual = 0.033529054, Final residual = 2.409988e-17, No Iterations 1
Radiation solver iter: 3
GAMG:  Solving for ILambda_0_0, Initial residual = 0.0060660247, Final residual = 5.9958424e-18, No Iterations 1
GAMG:  Solving for ILambda_1_0, Initial residual = 0.0093468826, Final residual = 1.3946454e-17, No Iterations 1
GAMG:  Solving for ILambda_2_0, Initial residual = 0.0093468826, Final residual = 1.3859256e-17, No Iterations 1
GAMG:  Solving for ILambda_3_0, Initial residual = 0.0060660247, Final residual = 3.6615994e-18, No Iterations 1
GAMG:  Solving for ILambda_4_0, Initial residual = 0.031234227, Final residual = 4.101753e-06, No Iterations 1
GAMG:  Solving for ILambda_5_0, Initial residual = 0.027712942, Final residual = 1.0040409e-05, No Iterations 1
GAMG:  Solving for ILambda_6_0, Initial residual = 0.027712942, Final residual = 1.0040409e-05, No Iterations 1
GAMG:  Solving for ILambda_7_0, Initial residual = 0.031234227, Final residual = 4.101753e-06, No Iterations 1
GAMG:  Solving for ILambda_8_0, Initial residual = 0.0060660109, Final residual = 3.8379657e-08, No Iterations 1
GAMG:  Solving for ILambda_9_0, Initial residual = 0.0093470192, Final residual = 6.2862051e-07, No Iterations 1
GAMG:  Solving for ILambda_10_0, Initial residual = 0.0093470192, Final residual = 6.2862051e-07, No Iterations 1
GAMG:  Solving for ILambda_11_0, Initial residual = 0.0060660109, Final residual = 3.8379657e-08, No Iterations 1
GAMG:  Solving for ILambda_12_0, Initial residual = 0.031232258, Final residual = 2.8643523e-17, No Iterations 1
GAMG:  Solving for ILambda_13_0, Initial residual = 0.027725675, Final residual = 1.0393281e-16, No Iterations 1
GAMG:  Solving for ILambda_14_0, Initial residual = 0.027725675, Final residual = 1.0260734e-16, No Iterations 1
GAMG:  Solving for ILambda_15_0, Initial residual = 0.031232258, Final residual = 2.7922203e-17, No Iterations 1
Radiation solver iter: 4
GAMG:  Solving for ILambda_0_0, Initial residual = 0.0057026654, Final residual = 4.0078011e-18, No Iterations 1
GAMG:  Solving for ILambda_1_0, Initial residual = 0.009457823, Final residual = 1.5841076e-17, No Iterations 1
GAMG:  Solving for ILambda_2_0, Initial residual = 0.009457823, Final residual = 1.5593125e-17, No Iterations 1
GAMG:  Solving for ILambda_3_0, Initial residual = 0.0057026654, Final residual = 3.3238712e-18, No Iterations 1
GAMG:  Solving for ILambda_4_0, Initial residual = 0.029106135, Final residual = 3.4321104e-06, No Iterations 1
GAMG:  Solving for ILambda_5_0, Initial residual = 0.025380008, Final residual = 7.0448334e-06, No Iterations 1
GAMG:  Solving for ILambda_6_0, Initial residual = 0.025380008, Final residual = 7.0448334e-06, No Iterations 1
GAMG:  Solving for ILambda_7_0, Initial residual = 0.029106135, Final residual = 3.4321104e-06, No Iterations 1
GAMG:  Solving for ILambda_8_0, Initial residual = 0.0057026485, Final residual = 3.733413e-08, No Iterations 1
GAMG:  Solving for ILambda_9_0, Initial residual = 0.0094579704, Final residual = 6.6280412e-07, No Iterations 1
GAMG:  Solving for ILambda_10_0, Initial residual = 0.0094579704, Final residual = 6.6280412e-07, No Iterations 1
GAMG:  Solving for ILambda_11_0, Initial residual = 0.0057026485, Final residual = 3.733413e-08, No Iterations 1
GAMG:  Solving for ILambda_12_0, Initial residual = 0.029103645, Final residual = 3.0346212e-17, No Iterations 1
GAMG:  Solving for ILambda_13_0, Initial residual = 0.025394119, Final residual = 1.1121577e-16, No Iterations 1
GAMG:  Solving for ILambda_14_0, Initial residual = 0.025394119, Final residual = 1.0376723e-16, No Iterations 1
GAMG:  Solving for ILambda_15_0, Initial residual = 0.029103645, Final residual = 2.403446e-17, No Iterations 1
Radiation solver iter: 5
GAMG:  Solving for ILambda_0_0, Initial residual = 0.0053672288, Final residual = 3.9983757e-18, No Iterations 1
GAMG:  Solving for ILambda_1_0, Initial residual = 0.0096308156, Final residual = 1.5467238e-17, No Iterations 1
GAMG:  Solving for ILambda_2_0, Initial residual = 0.0096308156, Final residual = 1.5772707e-17, No Iterations 1
GAMG:  Solving for ILambda_3_0, Initial residual = 0.0053672288, Final residual = 4.1666333e-18, No Iterations 1
GAMG:  Solving for ILambda_4_0, Initial residual = 0.027307922, Final residual = 2.7978863e-06, No Iterations 1
GAMG:  Solving for ILambda_5_0, Initial residual = 0.023068367, Final residual = 5.5408104e-06, No Iterations 1
GAMG:  Solving for ILambda_6_0, Initial residual = 0.023068367, Final residual = 5.5408104e-06, No Iterations 1
GAMG:  Solving for ILambda_7_0, Initial residual = 0.027307922, Final residual = 2.7978863e-06, No Iterations 1
GAMG:  Solving for ILambda_8_0, Initial residual = 0.0053672113, Final residual = 3.6301637e-08, No Iterations 1
GAMG:  Solving for ILambda_9_0, Initial residual = 0.0096309748, Final residual = 7.1056488e-07, No Iterations 1
GAMG:  Solving for ILambda_10_0, Initial residual = 0.0096309748, Final residual = 7.1056488e-07, No Iterations 1
GAMG:  Solving for ILambda_11_0, Initial residual = 0.0053672113, Final residual = 3.6301637e-08, No Iterations 1
GAMG:  Solving for ILambda_12_0, Initial residual = 0.027305816, Final residual = 2.9309917e-17, No Iterations 1
GAMG:  Solving for ILambda_13_0, Initial residual = 0.023074938, Final residual = 1.117269e-16, No Iterations 1
GAMG:  Solving for ILambda_14_0, Initial residual = 0.023074938, Final residual = 1.1559639e-16, No Iterations 1
GAMG:  Solving for ILambda_15_0, Initial residual = 0.027305816, Final residual = 2.9085081e-17, No Iterations 1
Radiation solver iter: 6
GAMG:  Solving for ILambda_0_0, Initial residual = 0.0050834691, Final residual = 3.9957485e-18, No Iterations 1
GAMG:  Solving for ILambda_1_0, Initial residual = 0.0098647865, Final residual = 1.6315129e-17, No Iterations 1
GAMG:  Solving for ILambda_2_0, Initial residual = 0.0098647865, Final residual = 1.615518e-17, No Iterations 1
GAMG:  Solving for ILambda_3_0, Initial residual = 0.0050834691, Final residual = 4.288689e-18, No Iterations 1
GAMG:  Solving for ILambda_4_0, Initial residual = 0.025808133, Final residual = 2.2294847e-06, No Iterations 1
GAMG:  Solving for ILambda_5_0, Initial residual = 0.021053207, Final residual = 4.5947054e-06, No Iterations 1
GAMG:  Solving for ILambda_6_0, Initial residual = 0.021053207, Final residual = 4.5947054e-06, No Iterations 1
GAMG:  Solving for ILambda_7_0, Initial residual = 0.025808133, Final residual = 2.2294847e-06, No Iterations 1
GAMG:  Solving for ILambda_8_0, Initial residual = 0.0050834538, Final residual = 3.5485966e-08, No Iterations 1
GAMG:  Solving for ILambda_9_0, Initial residual = 0.0098649493, Final residual = 7.7263841e-07, No Iterations 1
GAMG:  Solving for ILambda_10_0, Initial residual = 0.0098649493, Final residual = 7.7263841e-07, No Iterations 1
GAMG:  Solving for ILambda_11_0, Initial residual = 0.0050834538, Final residual = 3.5485966e-08, No Iterations 1
GAMG:  Solving for ILambda_12_0, Initial residual = 0.025806093, Final residual = 3.1122244e-17, No Iterations 1
GAMG:  Solving for ILambda_13_0, Initial residual = 0.02106588, Final residual = 1.1873048e-16, No Iterations 1
GAMG:  Solving for ILambda_14_0, Initial residual = 0.02106588, Final residual = 1.1316396e-16, No Iterations 1
GAMG:  Solving for ILambda_15_0, Initial residual = 0.025806093, Final residual = 2.8918364e-17, No Iterations 1
Radiation solver iter: 7
GAMG:  Solving for ILambda_0_0, Initial residual = 0.004850292, Final residual = 5.3650421e-18, No Iterations 1
GAMG:  Solving for ILambda_1_0, Initial residual = 0.010160939, Final residual = 1.7126277e-17, No Iterations 1
GAMG:  Solving for ILambda_2_0, Initial residual = 0.010160939, Final residual = 1.7273593e-17, No Iterations 1
GAMG:  Solving for ILambda_3_0, Initial residual = 0.004850292, Final residual = 5.3934466e-18, No Iterations 1
GAMG:  Solving for ILambda_4_0, Initial residual = 0.024603015, Final residual = 1.7971386e-06, No Iterations 1
GAMG:  Solving for ILambda_5_0, Initial residual = 0.019446675, Final residual = 3.5786242e-06, No Iterations 1
GAMG:  Solving for ILambda_6_0, Initial residual = 0.019446675, Final residual = 3.5786242e-06, No Iterations 1
GAMG:  Solving for ILambda_7_0, Initial residual = 0.024603015, Final residual = 1.7971386e-06, No Iterations 1
GAMG:  Solving for ILambda_8_0, Initial residual = 0.0048502828, Final residual = 3.4372119e-08, No Iterations 1
GAMG:  Solving for ILambda_9_0, Initial residual = 0.010161108, Final residual = 8.5336473e-07, No Iterations 1
GAMG:  Solving for ILambda_10_0, Initial residual = 0.010161108, Final residual = 8.5336473e-07, No Iterations 1
GAMG:  Solving for ILambda_11_0, Initial residual = 0.0048502828, Final residual = 3.4372119e-08, No Iterations 1
GAMG:  Solving for ILambda_12_0, Initial residual = 0.02460269, Final residual = 4.2094978e-17, No Iterations 1
GAMG:  Solving for ILambda_13_0, Initial residual = 0.019455195, Final residual = 1.2168709e-16, No Iterations 1
GAMG:  Solving for ILambda_14_0, Initial residual = 0.019455195, Final residual = 1.237015e-16, No Iterations 1
GAMG:  Solving for ILambda_15_0, Initial residual = 0.02460269, Final residual = 4.0337301e-17, No Iterations 1
Radiation solver iter: 8
GAMG:  Solving for ILambda_0_0, Initial residual = 0.0046180771, Final residual = 6.0370902e-18, No Iterations 1
GAMG:  Solving for ILambda_1_0, Initial residual = 0.010520477, Final residual = 1.749357e-17, No Iterations 1
GAMG:  Solving for ILambda_2_0, Initial residual = 0.010520477, Final residual = 1.8257406e-17, No Iterations 1
GAMG:  Solving for ILambda_3_0, Initial residual = 0.0046180771, Final residual = 5.6221181e-18, No Iterations 1
GAMG:  Solving for ILambda_4_0, Initial residual = 0.023485674, Final residual = 1.5583521e-06, No Iterations 1
GAMG:  Solving for ILambda_5_0, Initial residual = 0.017962563, Final residual = 2.8892011e-06, No Iterations 1
GAMG:  Solving for ILambda_6_0, Initial residual = 0.017962563, Final residual = 2.8892011e-06, No Iterations 1
GAMG:  Solving for ILambda_7_0, Initial residual = 0.023485674, Final residual = 1.5583521e-06, No Iterations 1
GAMG:  Solving for ILambda_8_0, Initial residual = 0.0046180655, Final residual = 3.3041853e-08, No Iterations 1
GAMG:  Solving for ILambda_9_0, Initial residual = 0.010520628, Final residual = 9.5089024e-07, No Iterations 1
GAMG:  Solving for ILambda_10_0, Initial residual = 0.010520628, Final residual = 9.5089024e-07, No Iterations 1
GAMG:  Solving for ILambda_11_0, Initial residual = 0.0046180655, Final residual = 3.3041853e-08, No Iterations 1
GAMG:  Solving for ILambda_12_0, Initial residual = 0.023484799, Final residual = 3.7961092e-17, No Iterations 1
GAMG:  Solving for ILambda_13_0, Initial residual = 0.017968498, Final residual = 1.1726957e-16, No Iterations 1
GAMG:  Solving for ILambda_14_0, Initial residual = 0.017968498, Final residual = 1.2469658e-16, No Iterations 1
GAMG:  Solving for ILambda_15_0, Initial residual = 0.023484799, Final residual = 3.9403288e-17, No Iterations 1
Radiation solver iter: 9
GAMG:  Solving for ILambda_0_0, Initial residual = 0.0044102897, Final residual = 6.1472946e-18, No Iterations 1
GAMG:  Solving for ILambda_1_0, Initial residual = 0.01094956, Final residual = 1.8591348e-17, No Iterations 1
GAMG:  Solving for ILambda_2_0, Initial residual = 0.01094956, Final residual = 1.8684679e-17, No Iterations 1
GAMG:  Solving for ILambda_3_0, Initial residual = 0.0044102897, Final residual = 4.6936513e-18, No Iterations 1
GAMG:  Solving for ILambda_4_0, Initial residual = 0.022268687, Final residual = 1.4788394e-06, No Iterations 1
GAMG:  Solving for ILambda_5_0, Initial residual = 0.016613855, Final residual = 2.1924241e-06, No Iterations 1
GAMG:  Solving for ILambda_6_0, Initial residual = 0.016613855, Final residual = 2.1924241e-06, No Iterations 1
GAMG:  Solving for ILambda_7_0, Initial residual = 0.022268687, Final residual = 1.4788394e-06, No Iterations 1
GAMG:  Solving for ILambda_8_0, Initial residual = 0.0044102792, Final residual = 3.1947133e-08, No Iterations 1
GAMG:  Solving for ILambda_9_0, Initial residual = 0.010949721, Final residual = 1.0786027e-06, No Iterations 1
GAMG:  Solving for ILambda_10_0, Initial residual = 0.010949721, Final residual = 1.0786027e-06, No Iterations 1
GAMG:  Solving for ILambda_11_0, Initial residual = 0.0044102792, Final residual = 3.1947133e-08, No Iterations 1
GAMG:  Solving for ILambda_12_0, Initial residual = 0.022267599, Final residual = 3.1703649e-17, No Iterations 1
GAMG:  Solving for ILambda_13_0, Initial residual = 0.016616826, Final residual = 1.3048151e-16, No Iterations 1
GAMG:  Solving for ILambda_14_0, Initial residual = 0.016616826, Final residual = 1.2515693e-16, No Iterations 1
GAMG:  Solving for ILambda_15_0, Initial residual = 0.022267599, Final residual = 3.1819517e-17, No Iterations 1
GAMG:  Solving for p_rgh, Initial residual = 0.0042711819, Final residual = 7.8885514e-07, No Iterations 4
time step continuity errors : sum local = 9.7630946e-07, global = -2.1355923e-07, cumulative = 2.560767e-06
ExecutionTime = 1.2 s  ClockTime = 1 s
Inflow      : -4.6379673e-08 [kg/s]
Outflow     : -4.6557781e-08 [kg/s]
EnergyInflow  : -0.01370344 [W]
EnergyOutflow : -0.013756064 [W]
EnergyBalance : -5.2624179e-05 [W]
rho max/avg/min : 1.2180275 1.2034087 1.201431
T   max/avg/min : 293.70165 293.24706 289.74895
P   max/avg/min : 101324.91 101316.16 101307.41
Prg max/avg/min : 101325.24 101325.01 101325
U   max/avg/min : 2.5688806e-05 -5.8774417e-05 -0.00016053631
Prg max-min : 0.23758315
 
sngrad(rho) :0.00074804628 -0.16444514 -1.4426567
 
Iteration Number = 11

DILUPBiCG:  Solving for Ux, Initial residual = 0.38460429, Final residual = 5.4432499e-05, No Iterations 2
DILUPBiCG:  Solving for Uy, Initial residual = 2.4992428e-05, Final residual = 5.7349939e-09, No Iterations 2
DILUPBiCG:  Solving for Uz, Initial residual = 0.18443718, Final residual = 2.7977526e-06, No Iterations 2
DILUPBiCG:  Solving for h, Initial residual = 0.062138836, Final residual = 6.0223682e-05, No Iterations 1
GAMG:  Solving for p_rgh, Initial residual = 0.0059081146, Final residual = 6.7493543e-07, No Iterations 4
time step continuity errors : sum local = 9.8111414e-07, global = 8.1155933e-07, cumulative = 3.3723264e-06
ExecutionTime = 1.23 s  ClockTime = 1 s
Inflow      : -3.9460808e-08 [kg/s]
Outflow     : -3.8783968e-08 [kg/s]
EnergyInflow  : -0.011659177 [W]
EnergyOutflow : -0.011459197 [W]
EnergyBalance : 0.00019998064 [W]
rho max/avg/min : 1.2179338 1.2036442 1.2014352
T   max/avg/min : 293.70064 293.19009 289.77095
P   max/avg/min : 101324.91 101316.16 101307.41
Prg max/avg/min : 101325.23 101325.01 101325
U   max/avg/min : 2.7622722e-05 -7.2163211e-05 -0.00017808818
Prg max-min : 0.23547151
 
sngrad(rho) :0.00018887795 -0.17193117 -1.2056207
 
Iteration Number = 12

DILUPBiCG:  Solving for Ux, Initial residual = 0.42441901, Final residual = 5.5755716e-05, No Iterations 2
DILUPBiCG:  Solving for Uy, Initial residual = 2.1645141e-05, Final residual = 4.2849497e-09, No Iterations 2
DILUPBiCG:  Solving for Uz, Initial residual = 0.20828178, Final residual = 4.6157767e-06, No Iterations 2
DILUPBiCG:  Solving for h, Initial residual = 0.046101421, Final residual = 3.2684176e-06, No Iterations 2
GAMG:  Solving for p_rgh, Initial residual = 0.0039956749, Final residual = 2.0077363e-06, No Iterations 4
time step continuity errors : sum local = 3.1894757e-06, global = -6.9709344e-07, cumulative = 2.6752329e-06
ExecutionTime = 1.26 s  ClockTime = 1 s
Inflow      : -3.2416489e-08 [kg/s]
Outflow     : -3.2997864e-08 [kg/s]
EnergyInflow  : -0.0095778472 [W]
EnergyOutflow : -0.0097496216 [W]
EnergyBalance : -0.00017177449 [W]
rho max/avg/min : 1.2187372 1.2038854 1.2014371
T   max/avg/min : 293.70015 293.1318 289.57997
P   max/avg/min : 101324.91 101316.16 101307.41
Prg max/avg/min : 101325.24 101325.02 101325
U   max/avg/min : 2.7495771e-05 -9.0673615e-05 -0.0002254084
Prg max-min : 0.24531493
 
sngrad(rho) :-6.7643624e-05 -0.17991736 -1.1226363
 
Iteration Number = 13

DILUPBiCG:  Solving for Ux, Initial residual = 0.39300037, Final residual = 5.2525253e-05, No Iterations 2
DILUPBiCG:  Solving for Uy, Initial residual = 2.1394569e-05, Final residual = 4.405709e-09, No Iterations 2
DILUPBiCG:  Solving for Uz, Initial residual = 0.18895859, Final residual = 2.7662088e-06, No Iterations 2
DILUPBiCG:  Solving for h, Initial residual = 0.042555819, Final residual = 5.313367e-06, No Iterations 2
GAMG:  Solving for p_rgh, Initial residual = 0.0035043455, Final residual = 1.0237591e-06, No Iterations 4
time step continuity errors : sum local = 1.8225507e-06, global = -3.1253098e-08, cumulative = 2.6439798e-06
ExecutionTime = 1.29 s  ClockTime = 1 s
Inflow      : -2.8206311e-08 [kg/s]
Outflow     : -2.8232376e-08 [kg/s]
EnergyInflow  : -0.0083338987 [W]
EnergyOutflow : -0.0083416 [W]
EnergyBalance : -7.7012413e-06 [W]
rho max/avg/min : 1.2195861 1.2041299 1.2014376
T   max/avg/min : 293.70014 293.07278 289.37843
P   max/avg/min : 101324.91 101316.16 101307.41
Prg max/avg/min : 101325.26 101325.02 101325
U   max/avg/min : 2.6086971e-05 -0.00011675075 -0.00028073787
Prg max-min : 0.25748225
 
sngrad(rho) :-0.00012692412 -0.18796606 -1.0806376
 
Iteration Number = 14

DILUPBiCG:  Solving for Ux, Initial residual = 0.3986028, Final residual = 4.9343284e-05, No Iterations 2
DILUPBiCG:  Solving for Uy, Initial residual = 2.3060324e-05, Final residual = 4.3561055e-09, No Iterations 2
DILUPBiCG:  Solving for Uz, Initial residual = 0.18234731, Final residual = 3.2531038e-06, No Iterations 2
DILUPBiCG:  Solving for h, Initial residual = 0.039633916, Final residual = 6.4186937e-06, No Iterations 2
GAMG:  Solving for p_rgh, Initial residual = 0.0033897244, Final residual = 8.9722456e-07, No Iterations 4
time step continuity errors : sum local = 1.7446186e-06, global = -3.4449884e-07, cumulative = 2.299481e-06
ExecutionTime = 1.32 s  ClockTime = 1 s
Inflow      : -2.4383371e-08 [kg/s]
Outflow     : -2.4670682e-08 [kg/s]
EnergyInflow  : -0.0072043643 [W]
EnergyOutflow : -0.0072892541 [W]
EnergyBalance : -8.4889785e-05 [W]
rho max/avg/min : 1.2204404 1.204377 1.2014376
T   max/avg/min : 293.70014 293.01314 289.17588
P   max/avg/min : 101324.91 101316.16 101307.41
Prg max/avg/min : 101325.27 101325.02 101325
U   max/avg/min : 2.7268211e-05 -0.00015048666 -0.0003442899
Prg max-min : 0.26973728
 
sngrad(rho) :-0.00013102781 -0.19593669 -1.0566677
 
Iteration Number = 15

DILUPBiCG:  Solving for Ux, Initial residual = 0.30654126, Final residual = 3.950504e-05, No Iterations 2
DILUPBiCG:  Solving for Uy, Initial residual = 2.9937502e-05, Final residual = 5.3761244e-09, No Iterations 2
DILUPBiCG:  Solving for Uz, Initial residual = 0.16965696, Final residual = 3.2196578e-06, No Iterations 2
DILUPBiCG:  Solving for h, Initial residual = 0.037156513, Final residual = 7.4323117e-06, No Iterations 2
GAMG:  Solving for p_rgh, Initial residual = 0.0034067209, Final residual = 2.0189424e-06, No Iterations 4
time step continuity errors : sum local = 4.337722e-06, global = -7.4145718e-07, cumulative = 1.5580238e-06
ExecutionTime = 1.35 s  ClockTime = 1 s
Inflow      : -2.1107255e-08 [kg/s]
Outflow     : -2.1725629e-08 [kg/s]
EnergyInflow  : -0.0062363959 [W]
EnergyOutflow : -0.0064191023 [W]
EnergyBalance : -0.00018270639 [W]
rho max/avg/min : 1.2212884 1.2046268 1.2014376
T   max/avg/min : 293.70013 292.95293 288.97511
P   max/avg/min : 101324.91 101316.16 101307.41
Prg max/avg/min : 101325.28 101325.02 101325
U   max/avg/min : 3.7805421e-05 -0.00019327533 -0.0004179625
Prg max-min : 0.28189857
 
sngrad(rho) :-0.00013132122 -0.20379908 -1.042794
 
Iteration Number = 16

DILUPBiCG:  Solving for Ux, Initial residual = 0.26149965, Final residual = 3.2509261e-05, No Iterations 2
DILUPBiCG:  Solving for Uy, Initial residual = 3.6522977e-05, Final residual = 4.9004529e-09, No Iterations 2
DILUPBiCG:  Solving for Uz, Initial residual = 0.16379278, Final residual = 3.9350018e-06, No Iterations 2
DILUPBiCG:  Solving for h, Initial residual = 0.035002608, Final residual = 8.556125e-06, No Iterations 2
GAMG:  Solving for p_rgh, Initial residual = 0.0034770937, Final residual = 1.8254927e-06, No Iterations 4
time step continuity errors : sum local = 4.2848526e-06, global = -1.6107158e-06, cumulative = -5.2692026e-08
ExecutionTime = 1.38 s  ClockTime = 1 s
Inflow      : -1.8541046e-08 [kg/s]
Outflow     : -1.9884382e-08 [kg/s]
EnergyInflow  : -0.0054781783 [W]
EnergyOutflow : -0.0058750833 [W]
EnergyBalance : -0.00039690502 [W]
rho max/avg/min : 1.2221257 1.2048789 1.2014376
T   max/avg/min : 293.7001 292.89217 288.77711
P   max/avg/min : 101324.91 101316.16 101307.41
Prg max/avg/min : 101325.29 101325.02 101325
U   max/avg/min : 5.0883686e-05 -0.00024670691 -0.0005050074
Prg max-min : 0.29391189
 
sngrad(rho) :-0.00013449866 -0.21154494 -1.0353048
 
Iteration Number = 17

DILUPBiCG:  Solving for Ux, Initial residual = 0.19207908, Final residual = 2.4473153e-05, No Iterations 2
DILUPBiCG:  Solving for Uy, Initial residual = 4.3596244e-05, Final residual = 4.5737419e-09, No Iterations 2
DILUPBiCG:  Solving for Uz, Initial residual = 0.15860698, Final residual = 4.0013564e-06, No Iterations 2
DILUPBiCG:  Solving for h, Initial residual = 0.033144069, Final residual = 9.96182e-06, No Iterations 2
GAMG:  Solving for p_rgh, Initial residual = 0.0035905865, Final residual = 2.8121103e-06, No Iterations 4
time step continuity errors : sum local = 7.1418198e-06, global = -1.4306678e-06, cumulative = -1.4833598e-06
ExecutionTime = 1.42 s  ClockTime = 1 s
Inflow      : -1.7297361e-08 [kg/s]
Outflow     : -1.8490537e-08 [kg/s]
EnergyInflow  : -0.0051107163 [W]
EnergyOutflow : -0.0054632547 [W]
EnergyBalance : -0.00035253842 [W]
rho max/avg/min : 1.222951 1.2051334 1.2014377
T   max/avg/min : 293.70005 292.8309 288.58222
P   max/avg/min : 101324.91 101316.16 101307.41
Prg max/avg/min : 101325.3 101325.03 101325
U   max/avg/min : 7.0450273e-05 -0.00031187275 -0.00060703275
Prg max-min : 0.3057478
 
sngrad(rho) :-0.00014516369 -0.21917047 -1.032156
 
Iteration Number = 18

DILUPBiCG:  Solving for Ux, Initial residual = 0.17922757, Final residual = 2.2373429e-05, No Iterations 2
DILUPBiCG:  Solving for Uy, Initial residual = 5.1337393e-05, Final residual = 4.2560119e-09, No Iterations 2
DILUPBiCG:  Solving for Uz, Initial residual = 0.15646194, Final residual = 5.374591e-06, No Iterations 2
DILUPBiCG:  Solving for h, Initial residual = 0.031475466, Final residual = 1.0235149e-05, No Iterations 2
GAMG:  Solving for p_rgh, Initial residual = 0.0037476881, Final residual = 2.6317648e-06, No Iterations 4
time step continuity errors : sum local = 7.2092877e-06, global = -3.1423447e-06, cumulative = -4.6257045e-06
ExecutionTime = 1.45 s  ClockTime = 1 s
Inflow      : -1.5149506e-08 [kg/s]
Outflow     : -1.777022e-08 [kg/s]
EnergyInflow  : -0.0044761065 [W]
EnergyOutflow : -0.0052504283 [W]
EnergyBalance : -0.00077432181 [W]
rho max/avg/min : 1.2237639 1.2053901 1.2014378
T   max/avg/min : 293.69999 292.76914 288.39051
P   max/avg/min : 101324.91 101316.16 101307.41
Prg max/avg/min : 101325.32 101325.03 101325
U   max/avg/min : 9.8447313e-05 -0.00039054797 -0.00072849573
Prg max-min : 0.31740902
 
sngrad(rho) :-0.00015680583 -0.22667037 -1.0321036
 
Iteration Number = 19

DILUPBiCG:  Solving for Ux, Initial residual = 0.13683146, Final residual = 1.8425039e-05, No Iterations 2
DILUPBiCG:  Solving for Uy, Initial residual = 7.1621386e-05, Final residual = 5.2567439e-09, No Iterations 2
DILUPBiCG:  Solving for Uz, Initial residual = 0.15240346, Final residual = 4.9271441e-06, No Iterations 2
DILUPBiCG:  Solving for h, Initial residual = 0.030009388, Final residual = 1.2996827e-05, No Iterations 2
GAMG:  Solving for p_rgh, Initial residual = 0.0039441399, Final residual = 3.5873934e-06, No Iterations 4
time step continuity errors : sum local = 1.0553104e-05, global = -1.6976257e-06, cumulative = -6.3233302e-06
ExecutionTime = 1.48 s  ClockTime = 1 s
Inflow      : -1.6264777e-08 [kg/s]
Outflow     : -1.7680596e-08 [kg/s]
EnergyInflow  : -0.0048056267 [W]
EnergyOutflow : -0.0052239478 [W]
EnergyBalance : -0.00041832108 [W]
rho max/avg/min : 1.2245646 1.205649 1.2014381
T   max/avg/min : 293.69997 292.7069 288.20194
P   max/avg/min : 101324.91 101316.16 101307.41
Prg max/avg/min : 101325.33 101325.03 101325
U   max/avg/min : 0.00013565514 -0.00048398578 -0.00087174974
Prg max-min : 0.32888856
 
sngrad(rho) :-0.00017660294 -0.23404093 -1.0343385
 
Iteration Number = 20

DILUPBiCG:  Solving for Ux, Initial residual = 0.1384019, Final residual = 1.824807e-05, No Iterations 2
DILUPBiCG:  Solving for Uy, Initial residual = 8.6375846e-05, Final residual = 6.366895e-09, No Iterations 2
DILUPBiCG:  Solving for Uz, Initial residual = 0.14958547, Final residual = 6.5984929e-06, No Iterations 2
DILUPBiCG:  Solving for h, Initial residual = 0.028699108, Final residual = 1.2787652e-05, No Iterations 2
Radiation solver iter: 0
GAMG:  Solving for ILambda_0_0, Initial residual = 0.0042750137, Final residual = 5.796257e-18, No Iterations 1
GAMG:  Solving for ILambda_1_0, Initial residual = 0.011511059, Final residual = 2.0203232e-17, No Iterations 1
GAMG:  Solving for ILambda_2_0, Initial residual = 0.011511059, Final residual = 1.9541666e-17, No Iterations 1
GAMG:  Solving for ILambda_3_0, Initial residual = 0.0042750137, Final residual = 6.474778e-18, No Iterations 1
GAMG:  Solving for ILambda_4_0, Initial residual = 0.020939361, Final residual = 1.3840442e-06, No Iterations 1
GAMG:  Solving for ILambda_5_0, Initial residual = 0.015487975, Final residual = 1.6577691e-06, No Iterations 1
GAMG:  Solving for ILambda_6_0, Initial residual = 0.015487975, Final residual = 1.6577691e-06, No Iterations 1
GAMG:  Solving for ILambda_7_0, Initial residual = 0.020939361, Final residual = 1.3840442e-06, No Iterations 1
GAMG:  Solving for ILambda_8_0, Initial residual = 0.0042749897, Final residual = 3.0914477e-08, No Iterations 1
GAMG:  Solving for ILambda_9_0, Initial residual = 0.011511188, Final residual = 1.2194819e-06, No Iterations 1
GAMG:  Solving for ILambda_10_0, Initial residual = 0.011511188, Final residual = 1.2194819e-06, No Iterations 1
GAMG:  Solving for ILambda_11_0, Initial residual = 0.0042749897, Final residual = 3.0914477e-08, No Iterations 1
GAMG:  Solving for ILambda_12_0, Initial residual = 0.020938155, Final residual = 2.6655377e-17, No Iterations 1
GAMG:  Solving for ILambda_13_0, Initial residual = 0.015494981, Final residual = 1.3514568e-16, No Iterations 1
GAMG:  Solving for ILambda_14_0, Initial residual = 0.015494981, Final residual = 1.3766017e-16, No Iterations 1
GAMG:  Solving for ILambda_15_0, Initial residual = 0.020938155, Final residual = 3.3651397e-17, No Iterations 1
Radiation solver iter: 1
GAMG:  Solving for ILambda_0_0, Initial residual = 0.0041138578, Final residual = 4.9680087e-18, No Iterations 1
GAMG:  Solving for ILambda_1_0, Initial residual = 0.012098459, Final residual = 1.8972808e-17, No Iterations 1
GAMG:  Solving for ILambda_2_0, Initial residual = 0.012098459, Final residual = 2.0011294e-17, No Iterations 1
GAMG:  Solving for ILambda_3_0, Initial residual = 0.0041138578, Final residual = 4.6359005e-18, No Iterations 1
GAMG:  Solving for ILambda_4_0, Initial residual = 0.019780968, Final residual = 1.2995073e-06, No Iterations 1
GAMG:  Solving for ILambda_5_0, Initial residual = 0.014513013, Final residual = 1.491579e-06, No Iterations 1
GAMG:  Solving for ILambda_6_0, Initial residual = 0.014513013, Final residual = 1.491579e-06, No Iterations 1
GAMG:  Solving for ILambda_7_0, Initial residual = 0.019780968, Final residual = 1.2995073e-06, No Iterations 1
GAMG:  Solving for ILambda_8_0, Initial residual = 0.0041138247, Final residual = 3.0420848e-08, No Iterations 1
GAMG:  Solving for ILambda_9_0, Initial residual = 0.01209853, Final residual = 1.4012482e-06, No Iterations 1
GAMG:  Solving for ILambda_10_0, Initial residual = 0.01209853, Final residual = 1.4012482e-06, No Iterations 1
GAMG:  Solving for ILambda_11_0, Initial residual = 0.0041138247, Final residual = 3.0420848e-08, No Iterations 1
GAMG:  Solving for ILambda_12_0, Initial residual = 0.019780511, Final residual = 3.0693303e-17, No Iterations 1
GAMG:  Solving for ILambda_13_0, Initial residual = 0.014517634, Final residual = 1.393597e-16, No Iterations 1
GAMG:  Solving for ILambda_14_0, Initial residual = 0.014517634, Final residual = 1.432403e-16, No Iterations 1
GAMG:  Solving for ILambda_15_0, Initial residual = 0.019780511, Final residual = 3.3534166e-17, No Iterations 1
Radiation solver iter: 2
GAMG:  Solving for ILambda_0_0, Initial residual = 0.0039329508, Final residual = 6.0117828e-18, No Iterations 1
GAMG:  Solving for ILambda_1_0, Initial residual = 0.012767825, Final residual = 2.1469726e-17, No Iterations 1
GAMG:  Solving for ILambda_2_0, Initial residual = 0.012767825, Final residual = 2.0993067e-17, No Iterations 1
GAMG:  Solving for ILambda_3_0, Initial residual = 0.0039329508, Final residual = 5.9020334e-18, No Iterations 1
GAMG:  Solving for ILambda_4_0, Initial residual = 0.018812537, Final residual = 1.2167124e-06, No Iterations 1
GAMG:  Solving for ILambda_5_0, Initial residual = 0.01359466, Final residual = 1.1578285e-06, No Iterations 1
GAMG:  Solving for ILambda_6_0, Initial residual = 0.01359466, Final residual = 1.1578285e-06, No Iterations 1
GAMG:  Solving for ILambda_7_0, Initial residual = 0.018812537, Final residual = 1.2167124e-06, No Iterations 1
GAMG:  Solving for ILambda_8_0, Initial residual = 0.0039329084, Final residual = 3.0045201e-08, No Iterations 1
GAMG:  Solving for ILambda_9_0, Initial residual = 0.012767855, Final residual = 1.5942585e-06, No Iterations 1
GAMG:  Solving for ILambda_10_0, Initial residual = 0.012767855, Final residual = 1.5942585e-06, No Iterations 1
GAMG:  Solving for ILambda_11_0, Initial residual = 0.0039329084, Final residual = 3.0045201e-08, No Iterations 1
GAMG:  Solving for ILambda_12_0, Initial residual = 0.01881189, Final residual = 3.0403893e-17, No Iterations 1
GAMG:  Solving for ILambda_13_0, Initial residual = 0.013596862, Final residual = 1.5163447e-16, No Iterations 1
GAMG:  Solving for ILambda_14_0, Initial residual = 0.013596862, Final residual = 1.4373844e-16, No Iterations 1
GAMG:  Solving for ILambda_15_0, Initial residual = 0.01881189, Final residual = 2.9697743e-17, No Iterations 1
Radiation solver iter: 3
GAMG:  Solving for ILambda_0_0, Initial residual = 0.0038219316, Final residual = 5.9244122e-18, No Iterations 1
GAMG:  Solving for ILambda_1_0, Initial residual = 0.01352702, Final residual = 2.40922e-17, No Iterations 1
GAMG:  Solving for ILambda_2_0, Initial residual = 0.01352702, Final residual = 2.2569221e-17, No Iterations 1
GAMG:  Solving for ILambda_3_0, Initial residual = 0.0038219316, Final residual = 5.5654816e-18, No Iterations 1
GAMG:  Solving for ILambda_4_0, Initial residual = 0.017910453, Final residual = 1.1298089e-06, No Iterations 1
GAMG:  Solving for ILambda_5_0, Initial residual = 0.012803405, Final residual = 8.8860431e-07, No Iterations 1
GAMG:  Solving for ILambda_6_0, Initial residual = 0.012803405, Final residual = 8.8860431e-07, No Iterations 1
GAMG:  Solving for ILambda_7_0, Initial residual = 0.017910453, Final residual = 1.1298089e-06, No Iterations 1
GAMG:  Solving for ILambda_8_0, Initial residual = 0.0038218734, Final residual = 2.9537642e-08, No Iterations 1
GAMG:  Solving for ILambda_9_0, Initial residual = 0.013526946, Final residual = 1.8251056e-06, No Iterations 1
GAMG:  Solving for ILambda_10_0, Initial residual = 0.013526946, Final residual = 1.8251056e-06, No Iterations 1
GAMG:  Solving for ILambda_11_0, Initial residual = 0.0038218734, Final residual = 2.9537642e-08, No Iterations 1
GAMG:  Solving for ILambda_12_0, Initial residual = 0.017909796, Final residual = 3.1884804e-17, No Iterations 1
GAMG:  Solving for ILambda_13_0, Initial residual = 0.012808957, Final residual = 1.5438264e-16, No Iterations 1
GAMG:  Solving for ILambda_14_0, Initial residual = 0.012808957, Final residual = 1.5647064e-16, No Iterations 1
GAMG:  Solving for ILambda_15_0, Initial residual = 0.017909796, Final residual = 3.1125691e-17, No Iterations 1
Radiation solver iter: 4
GAMG:  Solving for ILambda_0_0, Initial residual = 0.0036999986, Final residual = 5.3448313e-18, No Iterations 1
GAMG:  Solving for ILambda_1_0, Initial residual = 0.014373571, Final residual = 2.4722381e-17, No Iterations 1
GAMG:  Solving for ILambda_2_0, Initial residual = 0.014373571, Final residual = 2.536405e-17, No Iterations 1
GAMG:  Solving for ILambda_3_0, Initial residual = 0.0036999986, Final residual = 5.8795252e-18, No Iterations 1
GAMG:  Solving for ILambda_4_0, Initial residual = 0.017020369, Final residual = 1.0367343e-06, No Iterations 1
GAMG:  Solving for ILambda_5_0, Initial residual = 0.012147972, Final residual = 7.4365718e-07, No Iterations 1
GAMG:  Solving for ILambda_6_0, Initial residual = 0.012147972, Final residual = 7.4365718e-07, No Iterations 1
GAMG:  Solving for ILambda_7_0, Initial residual = 0.017020369, Final residual = 1.0367343e-06, No Iterations 1
GAMG:  Solving for ILambda_8_0, Initial residual = 0.00369992, Final residual = 2.8864615e-08, No Iterations 1
GAMG:  Solving for ILambda_9_0, Initial residual = 0.014373359, Final residual = 2.1098316e-06, No Iterations 1
GAMG:  Solving for ILambda_10_0, Initial residual = 0.014373359, Final residual = 2.1098316e-06, No Iterations 1
GAMG:  Solving for ILambda_11_0, Initial residual = 0.00369992, Final residual = 2.8864615e-08, No Iterations 1
GAMG:  Solving for ILambda_12_0, Initial residual = 0.017019447, Final residual = 3.5677022e-17, No Iterations 1
GAMG:  Solving for ILambda_13_0, Initial residual = 0.012151572, Final residual = 1.6132921e-16, No Iterations 1
GAMG:  Solving for ILambda_14_0, Initial residual = 0.012151572, Final residual = 1.6193165e-16, No Iterations 1
GAMG:  Solving for ILambda_15_0, Initial residual = 0.017019447, Final residual = 4.026352e-17, No Iterations 1
Radiation solver iter: 5
GAMG:  Solving for ILambda_0_0, Initial residual = 0.0035762689, Final residual = 5.0970435e-18, No Iterations 1
GAMG:  Solving for ILambda_1_0, Initial residual = 0.015312818, Final residual = 2.7897703e-17, No Iterations 1
GAMG:  Solving for ILambda_2_0, Initial residual = 0.015312818, Final residual = 2.7666763e-17, No Iterations 1
GAMG:  Solving for ILambda_3_0, Initial residual = 0.0035762689, Final residual = 5.7821371e-18, No Iterations 1
GAMG:  Solving for ILambda_4_0, Initial residual = 0.016324157, Final residual = 9.3820858e-07, No Iterations 1
GAMG:  Solving for ILambda_5_0, Initial residual = 0.011539232, Final residual = 5.9795022e-07, No Iterations 1
GAMG:  Solving for ILambda_6_0, Initial residual = 0.011539232, Final residual = 5.9795022e-07, No Iterations 1
GAMG:  Solving for ILambda_7_0, Initial residual = 0.016324157, Final residual = 9.3820858e-07, No Iterations 1
GAMG:  Solving for ILambda_8_0, Initial residual = 0.0035761751, Final residual = 2.8293646e-08, No Iterations 1
GAMG:  Solving for ILambda_9_0, Initial residual = 0.015312337, Final residual = 2.4389864e-06, No Iterations 1
GAMG:  Solving for ILambda_10_0, Initial residual = 0.015312337, Final residual = 2.4389864e-06, No Iterations 1
GAMG:  Solving for ILambda_11_0, Initial residual = 0.0035761751, Final residual = 2.8293646e-08, No Iterations 1
GAMG:  Solving for ILambda_12_0, Initial residual = 0.016324176, Final residual = 4.4370933e-17, No Iterations 1
GAMG:  Solving for ILambda_13_0, Initial residual = 0.011541466, Final residual = 1.6606498e-16, No Iterations 1
GAMG:  Solving for ILambda_14_0, Initial residual = 0.011541466, Final residual = 1.6840057e-16, No Iterations 1
GAMG:  Solving for ILambda_15_0, Initial residual = 0.016324176, Final residual = 3.6571989e-17, No Iterations 1
Radiation solver iter: 6
GAMG:  Solving for ILambda_0_0, Initial residual = 0.0034775381, Final residual = 5.3155211e-18, No Iterations 1
GAMG:  Solving for ILambda_1_0, Initial residual = 0.016355254, Final residual = 2.9536863e-17, No Iterations 1
GAMG:  Solving for ILambda_2_0, Initial residual = 0.016355254, Final residual = 2.8370624e-17, No Iterations 1
GAMG:  Solving for ILambda_3_0, Initial residual = 0.0034775381, Final residual = 5.9397589e-18, No Iterations 1
GAMG:  Solving for ILambda_4_0, Initial residual = 0.015791765, Final residual = 8.7964726e-07, No Iterations 1
GAMG:  Solving for ILambda_5_0, Initial residual = 0.011010913, Final residual = 4.8264893e-07, No Iterations 1
GAMG:  Solving for ILambda_6_0, Initial residual = 0.011010913, Final residual = 4.8264893e-07, No Iterations 1
GAMG:  Solving for ILambda_7_0, Initial residual = 0.015791765, Final residual = 8.7964726e-07, No Iterations 1
GAMG:  Solving for ILambda_8_0, Initial residual = 0.0034775068, Final residual = 2.7633201e-08, No Iterations 1
GAMG:  Solving for ILambda_9_0, Initial residual = 0.016354616, Final residual = 2.8682145e-06, No Iterations 1
GAMG:  Solving for ILambda_10_0, Initial residual = 0.016354616, Final residual = 2.8682145e-06, No Iterations 1
GAMG:  Solving for ILambda_11_0, Initial residual = 0.0034775068, Final residual = 2.7633201e-08, No Iterations 1
GAMG:  Solving for ILambda_12_0, Initial residual = 0.015791799, Final residual = 3.9603486e-17, No Iterations 1
GAMG:  Solving for ILambda_13_0, Initial residual = 0.011012914, Final residual = 1.7966694e-16, No Iterations 1
GAMG:  Solving for ILambda_14_0, Initial residual = 0.011012914, Final residual = 1.7677069e-16, No Iterations 1
GAMG:  Solving for ILambda_15_0, Initial residual = 0.015791799, Final residual = 3.9487558e-17, No Iterations 1
Radiation solver iter: 7
GAMG:  Solving for ILambda_0_0, Initial residual = 0.0033868, Final residual = 5.9614415e-18, No Iterations 1
GAMG:  Solving for ILambda_1_0, Initial residual = 0.017540393, Final residual = 2.9849467e-17, No Iterations 1
GAMG:  Solving for ILambda_2_0, Initial residual = 0.017540393, Final residual = 2.9899088e-17, No Iterations 1
GAMG:  Solving for ILambda_3_0, Initial residual = 0.0033868, Final residual = 6.7800703e-18, No Iterations 1
GAMG:  Solving for ILambda_4_0, Initial residual = 0.015240977, Final residual = 8.2931285e-07, No Iterations 1
GAMG:  Solving for ILambda_5_0, Initial residual = 0.010562329, Final residual = 4.1002296e-07, No Iterations 1
GAMG:  Solving for ILambda_6_0, Initial residual = 0.010562329, Final residual = 4.1002296e-07, No Iterations 1
GAMG:  Solving for ILambda_7_0, Initial residual = 0.015240977, Final residual = 8.2931285e-07, No Iterations 1
GAMG:  Solving for ILambda_8_0, Initial residual = 0.0033867597, Final residual = 2.6959943e-08, No Iterations 1
GAMG:  Solving for ILambda_9_0, Initial residual = 0.017539398, Final residual = 3.3512123e-06, No Iterations 1
GAMG:  Solving for ILambda_10_0, Initial residual = 0.017539398, Final residual = 3.3512123e-06, No Iterations 1
GAMG:  Solving for ILambda_11_0, Initial residual = 0.0033867597, Final residual = 2.6959943e-08, No Iterations 1
GAMG:  Solving for ILambda_12_0, Initial residual = 0.015240898, Final residual = 3.0631043e-17, No Iterations 1
GAMG:  Solving for ILambda_13_0, Initial residual = 0.010565302, Final residual = 1.8833762e-16, No Iterations 1
GAMG:  Solving for ILambda_14_0, Initial residual = 0.010565302, Final residual = 1.898539e-16, No Iterations 1
GAMG:  Solving for ILambda_15_0, Initial residual = 0.015240898, Final residual = 3.719553e-17, No Iterations 1
Radiation solver iter: 8
GAMG:  Solving for ILambda_0_0, Initial residual = 0.003290569, Final residual = 4.9987227e-18, No Iterations 1
GAMG:  Solving for ILambda_1_0, Initial residual = 0.018864983, Final residual = 3.2304713e-17, No Iterations 1
GAMG:  Solving for ILambda_2_0, Initial residual = 0.018864983, Final residual = 3.3478403e-17, No Iterations 1
GAMG:  Solving for ILambda_3_0, Initial residual = 0.003290569, Final residual = 7.1479866e-18, No Iterations 1
GAMG:  Solving for ILambda_4_0, Initial residual = 0.014670717, Final residual = 7.625203e-07, No Iterations 1
GAMG:  Solving for ILambda_5_0, Initial residual = 0.010191882, Final residual = 3.1722432e-07, No Iterations 1
GAMG:  Solving for ILambda_6_0, Initial residual = 0.010191882, Final residual = 3.1722432e-07, No Iterations 1
GAMG:  Solving for ILambda_7_0, Initial residual = 0.014670717, Final residual = 7.625203e-07, No Iterations 1
GAMG:  Solving for ILambda_8_0, Initial residual = 0.0032905141, Final residual = 2.633595e-08, No Iterations 1
GAMG:  Solving for ILambda_9_0, Initial residual = 0.018863586, Final residual = 3.9165771e-06, No Iterations 1
GAMG:  Solving for ILambda_10_0, Initial residual = 0.018863586, Final residual = 3.9165771e-06, No Iterations 1
GAMG:  Solving for ILambda_11_0, Initial residual = 0.0032905141, Final residual = 2.633595e-08, No Iterations 1
GAMG:  Solving for ILambda_12_0, Initial residual = 0.014670508, Final residual = 3.4420215e-17, No Iterations 1
GAMG:  Solving for ILambda_13_0, Initial residual = 0.010194144, Final residual = 2.0779838e-16, No Iterations 1
GAMG:  Solving for ILambda_14_0, Initial residual = 0.010194144, Final residual = 2.086383e-16, No Iterations 1
GAMG:  Solving for ILambda_15_0, Initial residual = 0.014670508, Final residual = 3.3513769e-17, No Iterations 1
Radiation solver iter: 9
GAMG:  Solving for ILambda_0_0, Initial residual = 0.0031961112, Final residual = 5.6108974e-18, No Iterations 1
GAMG:  Solving for ILambda_1_0, Initial residual = 0.02032356, Final residual = 3.4738072e-17, No Iterations 1
GAMG:  Solving for ILambda_2_0, Initial residual = 0.02032356, Final residual = 3.5333533e-17, No Iterations 1
GAMG:  Solving for ILambda_3_0, Initial residual = 0.0031961112, Final residual = 6.0528574e-18, No Iterations 1
GAMG:  Solving for ILambda_4_0, Initial residual = 0.014085947, Final residual = 7.1396771e-07, No Iterations 1
GAMG:  Solving for ILambda_5_0, Initial residual = 0.0098826017, Final residual = 2.6281252e-07, No Iterations 1
GAMG:  Solving for ILambda_6_0, Initial residual = 0.0098826017, Final residual = 2.6281252e-07, No Iterations 1
GAMG:  Solving for ILambda_7_0, Initial residual = 0.014085947, Final residual = 7.1396771e-07, No Iterations 1
[...]
GAMG:  Solving for ILambda_4_0, Initial residual = 9.5089626e-05, Final residual = 9.5089626e-05, No Iterations 0
GAMG:  Solving for ILambda_5_0, Initial residual = 9.2009593e-05, Final residual = 9.2009593e-05, No Iterations 0
GAMG:  Solving for ILambda_6_0, Initial residual = 9.2009593e-05, Final residual = 9.2009593e-05, No Iterations 0
GAMG:  Solving for ILambda_7_0, Initial residual = 9.5089626e-05, Final residual = 9.5089626e-05, No Iterations 0
GAMG:  Solving for ILambda_8_0, Initial residual = 9.9187228e-05, Final residual = 9.9187228e-05, No Iterations 0
GAMG:  Solving for ILambda_9_0, Initial residual = 9.5149318e-05, Final residual = 9.5149318e-05, No Iterations 0
GAMG:  Solving for ILambda_10_0, Initial residual = 9.5149318e-05, Final residual = 9.5149318e-05, No Iterations 0
GAMG:  Solving for ILambda_11_0, Initial residual = 9.9187228e-05, Final residual = 9.9187228e-05, No Iterations 0
GAMG:  Solving for ILambda_12_0, Initial residual = 9.8766794e-05, Final residual = 9.8766794e-05, No Iterations 0
GAMG:  Solving for ILambda_13_0, Initial residual = 8.803455e-05, Final residual = 8.803455e-05, No Iterations 0
GAMG:  Solving for ILambda_14_0, Initial residual = 8.803455e-05, Final residual = 8.803455e-05, No Iterations 0
GAMG:  Solving for ILambda_15_0, Initial residual = 9.8766794e-05, Final residual = 9.8766794e-05, No Iterations 0
Radiation solver iter: 3
GAMG:  Solving for ILambda_0_0, Initial residual = 9.8850584e-05, Final residual = 9.8850584e-05, No Iterations 0
GAMG:  Solving for ILambda_1_0, Initial residual = 9.4825185e-05, Final residual = 9.4825185e-05, No Iterations 0
GAMG:  Solving for ILambda_2_0, Initial residual = 9.4825185e-05, Final residual = 9.4825185e-05, No Iterations 0
GAMG:  Solving for ILambda_3_0, Initial residual = 9.8850584e-05, Final residual = 9.8850584e-05, No Iterations 0
GAMG:  Solving for ILambda_4_0, Initial residual = 9.5089626e-05, Final residual = 9.5089626e-05, No Iterations 0
GAMG:  Solving for ILambda_5_0, Initial residual = 9.2009593e-05, Final residual = 9.2009593e-05, No Iterations 0
GAMG:  Solving for ILambda_6_0, Initial residual = 9.2009593e-05, Final residual = 9.2009593e-05, No Iterations 0
GAMG:  Solving for ILambda_7_0, Initial residual = 9.5089626e-05, Final residual = 9.5089626e-05, No Iterations 0
GAMG:  Solving for ILambda_8_0, Initial residual = 9.9187228e-05, Final residual = 9.9187228e-05, No Iterations 0
GAMG:  Solving for ILambda_9_0, Initial residual = 9.5149318e-05, Final residual = 9.5149318e-05, No Iterations 0
GAMG:  Solving for ILambda_10_0, Initial residual = 9.5149318e-05, Final residual = 9.5149318e-05, No Iterations 0
GAMG:  Solving for ILambda_11_0, Initial residual = 9.9187228e-05, Final residual = 9.9187228e-05, No Iterations 0
GAMG:  Solving for ILambda_12_0, Initial residual = 9.8766794e-05, Final residual = 9.8766794e-05, No Iterations 0
GAMG:  Solving for ILambda_13_0, Initial residual = 8.803455e-05, Final residual = 8.803455e-05, No Iterations 0
GAMG:  Solving for ILambda_14_0, Initial residual = 8.803455e-05, Final residual = 8.803455e-05, No Iterations 0
GAMG:  Solving for ILambda_15_0, Initial residual = 9.8766794e-05, Final residual = 9.8766794e-05, No Iterations 0
Radiation solver iter: 4
GAMG:  Solving for ILambda_0_0, Initial residual = 9.8850584e-05, Final residual = 9.8850584e-05, No Iterations 0
GAMG:  Solving for ILambda_1_0, Initial residual = 9.4825185e-05, Final residual = 9.4825185e-05, No Iterations 0
GAMG:  Solving for ILambda_2_0, Initial residual = 9.4825185e-05, Final residual = 9.4825185e-05, No Iterations 0
GAMG:  Solving for ILambda_3_0, Initial residual = 9.8850584e-05, Final residual = 9.8850584e-05, No Iterations 0
GAMG:  Solving for ILambda_4_0, Initial residual = 9.5089626e-05, Final residual = 9.5089626e-05, No Iterations 0
GAMG:  Solving for ILambda_5_0, Initial residual = 9.2009593e-05, Final residual = 9.2009593e-05, No Iterations 0
GAMG:  Solving for ILambda_6_0, Initial residual = 9.2009593e-05, Final residual = 9.2009593e-05, No Iterations 0
GAMG:  Solving for ILambda_7_0, Initial residual = 9.5089626e-05, Final residual = 9.5089626e-05, No Iterations 0
GAMG:  Solving for ILambda_8_0, Initial residual = 9.9187228e-05, Final residual = 9.9187228e-05, No Iterations 0
GAMG:  Solving for ILambda_9_0, Initial residual = 9.5149318e-05, Final residual = 9.5149318e-05, No Iterations 0
GAMG:  Solving for ILambda_10_0, Initial residual = 9.5149318e-05, Final residual = 9.5149318e-05, No Iterations 0
GAMG:  Solving for ILambda_11_0, Initial residual = 9.9187228e-05, Final residual = 9.9187228e-05, No Iterations 0
GAMG:  Solving for ILambda_12_0, Initial residual = 9.8766794e-05, Final residual = 9.8766794e-05, No Iterations 0
GAMG:  Solving for ILambda_13_0, Initial residual = 8.803455e-05, Final residual = 8.803455e-05, No Iterations 0
GAMG:  Solving for ILambda_14_0, Initial residual = 8.803455e-05, Final residual = 8.803455e-05, No Iterations 0
GAMG:  Solving for ILambda_15_0, Initial residual = 9.8766794e-05, Final residual = 9.8766794e-05, No Iterations 0
Radiation solver iter: 5
GAMG:  Solving for ILambda_0_0, Initial residual = 9.8850584e-05, Final residual = 9.8850584e-05, No Iterations 0
GAMG:  Solving for ILambda_1_0, Initial residual = 9.4825185e-05, Final residual = 9.4825185e-05, No Iterations 0
GAMG:  Solving for ILambda_2_0, Initial residual = 9.4825185e-05, Final residual = 9.4825185e-05, No Iterations 0
GAMG:  Solving for ILambda_3_0, Initial residual = 9.8850584e-05, Final residual = 9.8850584e-05, No Iterations 0
GAMG:  Solving for ILambda_4_0, Initial residual = 9.5089626e-05, Final residual = 9.5089626e-05, No Iterations 0
GAMG:  Solving for ILambda_5_0, Initial residual = 9.2009593e-05, Final residual = 9.2009593e-05, No Iterations 0
GAMG:  Solving for ILambda_6_0, Initial residual = 9.2009593e-05, Final residual = 9.2009593e-05, No Iterations 0
GAMG:  Solving for ILambda_7_0, Initial residual = 9.5089626e-05, Final residual = 9.5089626e-05, No Iterations 0
GAMG:  Solving for ILambda_8_0, Initial residual = 9.9187228e-05, Final residual = 9.9187228e-05, No Iterations 0
GAMG:  Solving for ILambda_9_0, Initial residual = 9.5149318e-05, Final residual = 9.5149318e-05, No Iterations 0
GAMG:  Solving for ILambda_10_0, Initial residual = 9.5149318e-05, Final residual = 9.5149318e-05, No Iterations 0
GAMG:  Solving for ILambda_11_0, Initial residual = 9.9187228e-05, Final residual = 9.9187228e-05, No Iterations 0
GAMG:  Solving for ILambda_12_0, Initial residual = 9.8766794e-05, Final residual = 9.8766794e-05, No Iterations 0
GAMG:  Solving for ILambda_13_0, Initial residual = 8.803455e-05, Final residual = 8.803455e-05, No Iterations 0
GAMG:  Solving for ILambda_14_0, Initial residual = 8.803455e-05, Final residual = 8.803455e-05, No Iterations 0
GAMG:  Solving for ILambda_15_0, Initial residual = 9.8766794e-05, Final residual = 9.8766794e-05, No Iterations 0
Radiation solver iter: 6
GAMG:  Solving for ILambda_0_0, Initial residual = 9.8850584e-05, Final residual = 9.8850584e-05, No Iterations 0
GAMG:  Solving for ILambda_1_0, Initial residual = 9.4825185e-05, Final residual = 9.4825185e-05, No Iterations 0
GAMG:  Solving for ILambda_2_0, Initial residual = 9.4825185e-05, Final residual = 9.4825185e-05, No Iterations 0
GAMG:  Solving for ILambda_3_0, Initial residual = 9.8850584e-05, Final residual = 9.8850584e-05, No Iterations 0
GAMG:  Solving for ILambda_4_0, Initial residual = 9.5089626e-05, Final residual = 9.5089626e-05, No Iterations 0
GAMG:  Solving for ILambda_5_0, Initial residual = 9.2009593e-05, Final residual = 9.2009593e-05, No Iterations 0
GAMG:  Solving for ILambda_6_0, Initial residual = 9.2009593e-05, Final residual = 9.2009593e-05, No Iterations 0
GAMG:  Solving for ILambda_7_0, Initial residual = 9.5089626e-05, Final residual = 9.5089626e-05, No Iterations 0
GAMG:  Solving for ILambda_8_0, Initial residual = 9.9187228e-05, Final residual = 9.9187228e-05, No Iterations 0
GAMG:  Solving for ILambda_9_0, Initial residual = 9.5149318e-05, Final residual = 9.5149318e-05, No Iterations 0
GAMG:  Solving for ILambda_10_0, Initial residual = 9.5149318e-05, Final residual = 9.5149318e-05, No Iterations 0
GAMG:  Solving for ILambda_11_0, Initial residual = 9.9187228e-05, Final residual = 9.9187228e-05, No Iterations 0
GAMG:  Solving for ILambda_12_0, Initial residual = 9.8766794e-05, Final residual = 9.8766794e-05, No Iterations 0
GAMG:  Solving for ILambda_13_0, Initial residual = 8.803455e-05, Final residual = 8.803455e-05, No Iterations 0
GAMG:  Solving for ILambda_14_0, Initial residual = 8.803455e-05, Final residual = 8.803455e-05, No Iterations 0
GAMG:  Solving for ILambda_15_0, Initial residual = 9.8766794e-05, Final residual = 9.8766794e-05, No Iterations 0
Radiation solver iter: 7
GAMG:  Solving for ILambda_0_0, Initial residual = 9.8850584e-05, Final residual = 9.8850584e-05, No Iterations 0
GAMG:  Solving for ILambda_1_0, Initial residual = 9.4825185e-05, Final residual = 9.4825185e-05, No Iterations 0
GAMG:  Solving for ILambda_2_0, Initial residual = 9.4825185e-05, Final residual = 9.4825185e-05, No Iterations 0
GAMG:  Solving for ILambda_3_0, Initial residual = 9.8850584e-05, Final residual = 9.8850584e-05, No Iterations 0
GAMG:  Solving for ILambda_4_0, Initial residual = 9.5089626e-05, Final residual = 9.5089626e-05, No Iterations 0
GAMG:  Solving for ILambda_5_0, Initial residual = 9.2009593e-05, Final residual = 9.2009593e-05, No Iterations 0
GAMG:  Solving for ILambda_6_0, Initial residual = 9.2009593e-05, Final residual = 9.2009593e-05, No Iterations 0
GAMG:  Solving for ILambda_7_0, Initial residual = 9.5089626e-05, Final residual = 9.5089626e-05, No Iterations 0
GAMG:  Solving for ILambda_8_0, Initial residual = 9.9187228e-05, Final residual = 9.9187228e-05, No Iterations 0
GAMG:  Solving for ILambda_9_0, Initial residual = 9.5149318e-05, Final residual = 9.5149318e-05, No Iterations 0
GAMG:  Solving for ILambda_10_0, Initial residual = 9.5149318e-05, Final residual = 9.5149318e-05, No Iterations 0
GAMG:  Solving for ILambda_11_0, Initial residual = 9.9187228e-05, Final residual = 9.9187228e-05, No Iterations 0
GAMG:  Solving for ILambda_12_0, Initial residual = 9.8766794e-05, Final residual = 9.8766794e-05, No Iterations 0
GAMG:  Solving for ILambda_13_0, Initial residual = 8.803455e-05, Final residual = 8.803455e-05, No Iterations 0
GAMG:  Solving for ILambda_14_0, Initial residual = 8.803455e-05, Final residual = 8.803455e-05, No Iterations 0
GAMG:  Solving for ILambda_15_0, Initial residual = 9.8766794e-05, Final residual = 9.8766794e-05, No Iterations 0
Radiation solver iter: 8
GAMG:  Solving for ILambda_0_0, Initial residual = 9.8850584e-05, Final residual = 9.8850584e-05, No Iterations 0
GAMG:  Solving for ILambda_1_0, Initial residual = 9.4825185e-05, Final residual = 9.4825185e-05, No Iterations 0
GAMG:  Solving for ILambda_2_0, Initial residual = 9.4825185e-05, Final residual = 9.4825185e-05, No Iterations 0
GAMG:  Solving for ILambda_3_0, Initial residual = 9.8850584e-05, Final residual = 9.8850584e-05, No Iterations 0
GAMG:  Solving for ILambda_4_0, Initial residual = 9.5089626e-05, Final residual = 9.5089626e-05, No Iterations 0
GAMG:  Solving for ILambda_5_0, Initial residual = 9.2009593e-05, Final residual = 9.2009593e-05, No Iterations 0
GAMG:  Solving for ILambda_6_0, Initial residual = 9.2009593e-05, Final residual = 9.2009593e-05, No Iterations 0
GAMG:  Solving for ILambda_7_0, Initial residual = 9.5089626e-05, Final residual = 9.5089626e-05, No Iterations 0
GAMG:  Solving for ILambda_8_0, Initial residual = 9.9187228e-05, Final residual = 9.9187228e-05, No Iterations 0
GAMG:  Solving for ILambda_9_0, Initial residual = 9.5149318e-05, Final residual = 9.5149318e-05, No Iterations 0
GAMG:  Solving for ILambda_10_0, Initial residual = 9.5149318e-05, Final residual = 9.5149318e-05, No Iterations 0
GAMG:  Solving for ILambda_11_0, Initial residual = 9.9187228e-05, Final residual = 9.9187228e-05, No Iterations 0
GAMG:  Solving for ILambda_12_0, Initial residual = 9.8766794e-05, Final residual = 9.8766794e-05, No Iterations 0
GAMG:  Solving for ILambda_13_0, Initial residual = 8.803455e-05, Final residual = 8.803455e-05, No Iterations 0
GAMG:  Solving for ILambda_14_0, Initial residual = 8.803455e-05, Final residual = 8.803455e-05, No Iterations 0
GAMG:  Solving for ILambda_15_0, Initial residual = 9.8766794e-05, Final residual = 9.8766794e-05, No Iterations 0
Radiation solver iter: 9
GAMG:  Solving for ILambda_0_0, Initial residual = 9.8850584e-05, Final residual = 9.8850584e-05, No Iterations 0
GAMG:  Solving for ILambda_1_0, Initial residual = 9.4825185e-05, Final residual = 9.4825185e-05, No Iterations 0
GAMG:  Solving for ILambda_2_0, Initial residual = 9.4825185e-05, Final residual = 9.4825185e-05, No Iterations 0
GAMG:  Solving for ILambda_3_0, Initial residual = 9.8850584e-05, Final residual = 9.8850584e-05, No Iterations 0
GAMG:  Solving for ILambda_4_0, Initial residual = 9.5089626e-05, Final residual = 9.5089626e-05, No Iterations 0
GAMG:  Solving for ILambda_5_0, Initial residual = 9.2009593e-05, Final residual = 9.2009593e-05, No Iterations 0
GAMG:  Solving for ILambda_6_0, Initial residual = 9.2009593e-05, Final residual = 9.2009593e-05, No Iterations 0
GAMG:  Solving for ILambda_7_0, Initial residual = 9.5089626e-05, Final residual = 9.5089626e-05, No Iterations 0
GAMG:  Solving for ILambda_8_0, Initial residual = 9.9187228e-05, Final residual = 9.9187228e-05, No Iterations 0
GAMG:  Solving for ILambda_9_0, Initial residual = 9.5149318e-05, Final residual = 9.5149318e-05, No Iterations 0
GAMG:  Solving for ILambda_10_0, Initial residual = 9.5149318e-05, Final residual = 9.5149318e-05, No Iterations 0
GAMG:  Solving for ILambda_11_0, Initial residual = 9.9187228e-05, Final residual = 9.9187228e-05, No Iterations 0
GAMG:  Solving for ILambda_12_0, Initial residual = 9.8766794e-05, Final residual = 9.8766794e-05, No Iterations 0
GAMG:  Solving for ILambda_13_0, Initial residual = 8.803455e-05, Final residual = 8.803455e-05, No Iterations 0
GAMG:  Solving for ILambda_14_0, Initial residual = 8.803455e-05, Final residual = 8.803455e-05, No Iterations 0
GAMG:  Solving for ILambda_15_0, Initial residual = 9.8766794e-05, Final residual = 9.8766794e-05, No Iterations 0
GAMG:  Solving for p_rgh, Initial residual = 4.4899341e-06, Final residual = 5.6100494e-07, No Iterations 1
time step continuity errors : sum local = 2.774193e-06, global = -1.7012943e-07, cumulative = 0.00013575844
ExecutionTime = 64.7 s  ClockTime = 65 s
Inflow      : 3.24078e-05 [kg/s]
Outflow     : 3.2407658e-05 [kg/s]
EnergyInflow  : 9.57528 [W]
EnergyOutflow : 9.6287112 [W]
EnergyBalance : 0.053431219 [W]
rho max/avg/min : 1.2016472 1.1735989 1.1096747
T   max/avg/min : 317.9871 300.89142 293.68686
P   max/avg/min : 101324.91 101316.16 101307.4
Prg max/avg/min : 101325 101324.78 101323.65
U   max/avg/min : 0.51502109 0.16390089 0
Prg max-min : 1.3455212
 
sngrad(rho) :-0.0001398541 -0.00016291518 -0.00018037047
 
Iteration Number = 971

DILUPBiCG:  Solving for Ux, Initial residual = 0.00015059463, Final residual = 9.1325781e-10, No Iterations 3
DILUPBiCG:  Solving for Uy, Initial residual = 0.012644671, Final residual = 1.908066e-07, No Iterations 3
DILUPBiCG:  Solving for Uz, Initial residual = 5.0512748e-06, Final residual = 1.876948e-09, No Iterations 2
DILUPBiCG:  Solving for h, Initial residual = 9.8128944e-07, Final residual = 2.4651415e-09, No Iterations 4
GAMG:  Solving for p_rgh, Initial residual = 3.2304243e-06, Final residual = 1.2476424e-07, No Iterations 1
time step continuity errors : sum local = 6.1988483e-07, global = -2.0711642e-07, cumulative = 0.00013555132
ExecutionTime = 64.73 s  ClockTime = 65 s
Inflow      : 3.2408186e-05 [kg/s]
Outflow     : 3.2408013e-05 [kg/s]
EnergyInflow  : 9.5753939 [W]
EnergyOutflow : 9.6288158 [W]
EnergyBalance : 0.053421899 [W]
rho max/avg/min : 1.2016472 1.173599 1.1096749
T   max/avg/min : 317.98705 300.8914 293.68686
P   max/avg/min : 101324.91 101316.16 101307.4
Prg max/avg/min : 101325 101324.78 101323.65
U   max/avg/min : 0.51502526 0.16390217 0
Prg max-min : 1.3455119
 
sngrad(rho) :-0.00013670671 -0.00015616373 -0.00017883269
 
Iteration Number = 972

DILUPBiCG:  Solving for Ux, Initial residual = 8.1133856e-05, Final residual = 9.9853924e-09, No Iterations 2
DILUPBiCG:  Solving for Uy, Initial residual = 0.012173115, Final residual = 8.0573981e-06, No Iterations 2
DILUPBiCG:  Solving for Uz, Initial residual = 5.0151591e-06, Final residual = 1.534291e-09, No Iterations 2
DILUPBiCG:  Solving for h, Initial residual = 9.4580346e-07, Final residual = 3.4582078e-09, No Iterations 3
GAMG:  Solving for p_rgh, Initial residual = 1.127664e-06, Final residual = 1.8648732e-07, No Iterations 1
time step continuity errors : sum local = 9.247886e-07, global = -1.9323083e-07, cumulative = 0.00013535809
ExecutionTime = 64.75 s  ClockTime = 65 s
Inflow      : 3.2408567e-05 [kg/s]
Outflow     : 3.2408406e-05 [kg/s]
EnergyInflow  : 9.5755064 [W]
EnergyOutflow : 9.6289319 [W]
EnergyBalance : 0.053425466 [W]
rho max/avg/min : 1.2016472 1.173599 1.1096752
T   max/avg/min : 317.98696 300.89138 293.68686
P   max/avg/min : 101324.91 101316.16 101307.4
Prg max/avg/min : 101325 101324.78 101323.65
U   max/avg/min : 0.51502938 0.16390345 0
Prg max-min : 1.3455109
 
sngrad(rho) :-0.00013668351 -0.00015637419 -0.00017878527
 
Iteration Number = 973

DILUPBiCG:  Solving for Ux, Initial residual = 4.7391984e-05, Final residual = 1.280875e-08, No Iterations 2
DILUPBiCG:  Solving for Uy, Initial residual = 0.012511363, Final residual = 7.0865262e-06, No Iterations 2
DILUPBiCG:  Solving for Uz, Initial residual = 4.9273139e-06, Final residual = 1.4777805e-09, No Iterations 2
DILUPBiCG:  Solving for h, Initial residual = 9.3629121e-07, Final residual = 4.0064087e-09, No Iterations 3
GAMG:  Solving for p_rgh, Initial residual = 1.8683535e-06, Final residual = 1.0108308e-07, No Iterations 1
time step continuity errors : sum local = 5.0211544e-07, global = -1.5726009e-07, cumulative = 0.00013520083
ExecutionTime = 64.79 s  ClockTime = 65 s
Inflow      : 3.2408932e-05 [kg/s]
Outflow     : 3.2408801e-05 [kg/s]
EnergyInflow  : 9.5756143 [W]
EnergyOutflow : 9.6290487 [W]
EnergyBalance : 0.053434485 [W]
rho max/avg/min : 1.2016472 1.1735991 1.1096755
T   max/avg/min : 317.98687 300.89137 293.68686
P   max/avg/min : 101324.91 101316.16 101307.4
Prg max/avg/min : 101325 101324.78 101323.65
U   max/avg/min : 0.51503346 0.16390471 0
Prg max-min : 1.3455041
 
sngrad(rho) :-0.00013545163 -0.0001556125 -0.00017775439
 
Iteration Number = 974

DILUPBiCG:  Solving for Ux, Initial residual = 2.7559019e-05, Final residual = 5.2460307e-09, No Iterations 2
DILUPBiCG:  Solving for Uy, Initial residual = 0.012773579, Final residual = 5.7054331e-06, No Iterations 2
DILUPBiCG:  Solving for Uz, Initial residual = 4.874035e-06, Final residual = 1.4158232e-09, No Iterations 2
DILUPBiCG:  Solving for h, Initial residual = 9.4174678e-07, Final residual = 7.6177904e-09, No Iterations 3
GAMG:  Solving for p_rgh, Initial residual = 8.2863147e-07, Final residual = 8.2863147e-07, No Iterations 0
time step continuity errors : sum local = 4.0959403e-06, global = 1.1994865e-07, cumulative = 0.00013532078
ExecutionTime = 64.81 s  ClockTime = 65 s
Inflow      : 3.2409083e-05 [kg/s]
Outflow     : 3.2409183e-05 [kg/s]
EnergyInflow  : 9.575659 [W]
EnergyOutflow : 9.6291619 [W]
EnergyBalance : 0.053502982 [W]
rho max/avg/min : 1.2016472 1.1735992 1.1096758
T   max/avg/min : 317.98677 300.89135 293.68686
P   max/avg/min : 101324.91 101316.16 101307.4
Prg max/avg/min : 101325 101324.78 101323.65
U   max/avg/min : 0.51503758 0.16390597 0
Prg max-min : 1.3455041
 
sngrad(rho) :-0.00013698936 -0.00015605037 -0.00017699178
 

SIMPLE solution converged in 974 iterations

End

