/*---------------------------------------------------------------------------*\
| =========                 |                                                 |
| \\      /  F ield         | OpenFOAM: The Open Source CFD Toolbox           |
|  \\    /   O peration     | Version:  3.0.1                                 |
|   \\  /    A nd           | Web:      www.OpenFOAM.org                      |
|    \\/     M anipulation  |                                                 |
\*---------------------------------------------------------------------------*/
Build  : 3.0.1-119cac7e8750
Exec   : PupoCHTFOAM
Date   : Jun 28 2016
Time   : 11:10:47
Host   : "SC500"
PID    : 8439
Case   : /home/pedro/Documents/ThesisProject/OpenFoam/validation1rod/CHT
nProcs : 1
sigFpe : Enabling floating point exception trapping (FOAM_SIGFPE).
fileModificationChecking : Monitoring run-time modified files using timeStampMaster
allowSystemOperations : Allowing user-supplied system call operations

// * * * * * * * * * * * * * * * * * * * * * * * * * * * * * * * * * * * * * //
Create time

Create fluid mesh for region fluid for time = 0

Create solid mesh for region cilcen for time = 0

*** Reading fluid mesh thermophysical properties for region fluid

    Adding to thermoFluid

Selecting thermodynamics package 
{
    type            heRhoThermo;
    mixture         pureMixture;
    transport       sutherland;
    thermo          hConst;
    equationOfState perfectGas;
    specie          specie;
    energy          sensibleEnthalpy;
}

    Adding to rhoFluid

    Adding to UFluid

    Adding to phiFluid

    Adding to gFluid

    Adding to hRefFluid

    Adding to ghFluid

    Adding to ghfFluid

    Adding to turbulence

Selecting turbulence model type laminar
Selecting radiationModel fvDOM
Selecting absorptionEmissionModel constantAbsorptionEmission
Selecting scatterModel none
fvDOM  nSolutionD = 3 
fvDOM : Allocated 4 rays with average orientation:
	I0 : omega : 	3.1415927
	I1 : omega : 	3.1415927
	I2 : omega : 	3.1415927
	I3 : omega : 	3.1415927

    Adding MRF

No MRF models present

    Adding fvOptions

No finite volume options present


Initial Solution for fluid
ExecutionTime = 0.07 s  ClockTime = 0 s
fluid  Inflow      : -0 [kg/s]
fluid  Outflow     : 0 [kg/s]
fluid  EnergyInflow  : -0 [W]
fluid  EnergyOutflow : 0 [W]
fluid  rho max/avg/min : 1.2016442 1.2015404 1.2014366
fluid  T   max/avg/min : 293.7 293.7 293.7
fluid  P   max/avg/min : 101324.82 101316.07 101307.32
fluid  Prg max/avg/min : 101324.91 101324.91 101324.91
fluid  U   max/avg/min : 0 0 0
fluid  K average:  0.026451611
fluid  nu average: 1.5108442e-05
*** Reading solid mesh thermophysical properties for region cilcen

    Adding to thermos

Selecting thermodynamics package 
{
    type            heSolidThermo;
    mixture         pureMixture;
    transport       constIso;
    thermo          hConst;
    equationOfState rhoConst;
    specie          specie;
    energy          sensibleEnthalpy;
}

    Adding to radiations

Selecting radiationModel none
    Adding fvOptions

Creating finite volume options from "system/fvOptions"

Selecting finite volume options model type scalarSemiImplicitSource
    Source: source1
    - selecting cells using cellZone cilcen
    - selected 100 cell(s) with volume 6.6935611e-07
Time = 1


Solving for fluid region fluid
DILUPBiCG:  Solving for Ux, Initial residual = 0.86932376, Final residual = 0.00024728658, No Iterations 1
DILUPBiCG:  Solving for Uy, Initial residual = 0.22432726, Final residual = 4.6115773e-05, No Iterations 1
DILUPBiCG:  Solving for Uz, Initial residual = 1, Final residual = 0.00035792441, No Iterations 1
DILUPBiCG:  Solving for h, Initial residual = 1, Final residual = 5.7715664e-05, No Iterations 1
Radiation solver iter: 0
GAMG:  Solving for ILambda_0_0, Initial residual = 1, Final residual = 1.3745593e-16, No Iterations 1
GAMG:  Solving for ILambda_1_0, Initial residual = 1, Final residual = 6.2112598e-15, No Iterations 1
GAMG:  Solving for ILambda_2_0, Initial residual = 1, Final residual = 3.1797345e-16, No Iterations 1
GAMG:  Solving for ILambda_3_0, Initial residual = 1, Final residual = 6.5407164e-17, No Iterations 1
Radiation solver iter: 1
GAMG:  Solving for ILambda_0_0, Initial residual = 0.00063827395, Final residual = 0.00063827395, No Iterations 5
GAMG:  Solving for ILambda_1_0, Initial residual = 0.022861099, Final residual = 0.022861099, No Iterations 5
GAMG:  Solving for ILambda_2_0, Initial residual = 1.1875921e-11, Final residual = 1.1875921e-11, No Iterations 0
GAMG:  Solving for ILambda_3_0, Initial residual = 2.4428779e-12, Final residual = 2.4428779e-12, No Iterations 0
Radiation solver iter: 2
GAMG:  Solving for ILambda_0_0, Initial residual = 1, Final residual = 6.833733e-15, No Iterations 1
GAMG:  Solving for ILambda_1_0, Initial residual = 1, Final residual = 3.127739e-13, No Iterations 1
Radiation solver iter: 3
GAMG:  Solving for ILambda_0_0, Initial residual = 2.5523167e-10, Final residual = 2.5523167e-10, No Iterations 0
GAMG:  Solving for ILambda_1_0, Initial residual = 1.1681726e-08, Final residual = 1.1681726e-08, No Iterations 0
GAMG:  Solving for p_rgh, Initial residual = 0.99999997, Final residual = 0.0035738065, No Iterations 2
time step continuity errors : sum local = 0.004509669, global = -0.00050860509, cumulative = -0.00050860509
Min/max rho:0.9871256 1.2017805
ExecutionTime = 0.17 s  ClockTime = 0 s
fluid  Inflow      : 2.6692178e-07 [kg/s]
fluid  Outflow     : -1.5725456e-07 [kg/s]
fluid  EnergyInflow  : 0.078865299 [W]
fluid  EnergyOutflow : -0.046462777 [W]
fluid  rho max/avg/min : 1.2017805 1.1912367 1.0292248
fluid  T   max/avg/min : 342.84242 296.46775 293.66667
fluid  P   max/avg/min : 101324.91 101316.17 101307.41
fluid  Prg max/avg/min : 101325.02 101324.93 101322.48
fluid  U   max/avg/min : 0.075199973 0.00014074052 -0.06514868
fluid  K average:  0.026639904
fluid  nu average: 1.5369246e-05

Solving for solid region cilcen
DICPCG:  Solving for h, Initial residual = 1, Final residual = 1.2245792e-16, No Iterations 1
Tcilcen  max/avg/min : 348.0089 348.0084 348.00586
ExecutionTime = 0.18 s  ClockTime = 0 s

Time = 2


Solving for fluid region fluid
DILUPBiCG:  Solving for Ux, Initial residual = 0.29724448, Final residual = 0.00040202424, No Iterations 1
DILUPBiCG:  Solving for Uy, Initial residual = 0.2689125, Final residual = 0.00028362329, No Iterations 1
DILUPBiCG:  Solving for Uz, Initial residual = 0.37638354, Final residual = 0.00076974115, No Iterations 1
DILUPBiCG:  Solving for h, Initial residual = 0.085346927, Final residual = 2.0476542e-05, No Iterations 1
GAMG:  Solving for p_rgh, Initial residual = 0.15394448, Final residual = 0.00052923251, No Iterations 3
time step continuity errors : sum local = 0.0009035535, global = 0.00038102031, cumulative = -0.00012758478
Min/max rho:1.0147059 1.2017348
ExecutionTime = 0.24 s  ClockTime = 0 s
fluid  Inflow      : -4.4311975e-07 [kg/s]
fluid  Outflow     : -1.2534904e-07 [kg/s]
fluid  EnergyInflow  : -0.13092513 [W]
fluid  EnergyOutflow : -0.036981054 [W]
fluid  rho max/avg/min : 1.2017348 1.1868161 1.0285335
fluid  T   max/avg/min : 343.07377 297.66077 293.67811
fluid  P   max/avg/min : 101324.91 101316.16 101307.41
fluid  Prg max/avg/min : 101325.01 101324.9 101322.47
fluid  U   max/avg/min : 0.040420407 3.1251502e-05 -0.058658722
fluid  K average:  0.026720991
fluid  nu average: 1.548178e-05

Solving for solid region cilcen
DICPCG:  Solving for h, Initial residual = 0.9998196, Final residual = 2.9533755e-16, No Iterations 1
Tcilcen  max/avg/min : 348.34119 348.34105 348.33531
ExecutionTime = 0.24 s  ClockTime = 0 s

Time = 3


Solving for fluid region fluid
DILUPBiCG:  Solving for Ux, Initial residual = 0.15251665, Final residual = 5.7325001e-07, No Iterations 2
DILUPBiCG:  Solving for Uy, Initial residual = 0.14532505, Final residual = 3.9709678e-07, No Iterations 2
DILUPBiCG:  Solving for Uz, Initial residual = 0.38091334, Final residual = 0.0011597843, No Iterations 1
DILUPBiCG:  Solving for h, Initial residual = 0.035815881, Final residual = 1.5106055e-05, No Iterations 1
GAMG:  Solving for p_rgh, Initial residual = 0.10685308, Final residual = 0.00076287589, No Iterations 2
time step continuity errors : sum local = 0.001267645, global = 0.00083540305, cumulative = 0.00070781826
Min/max rho:1.0137411 1.2017283
ExecutionTime = 0.3 s  ClockTime = 0 s
fluid  Inflow      : -8.0869064e-07 [kg/s]
fluid  Outflow     : -1.11965e-07 [kg/s]
fluid  EnergyInflow  : -0.23893751 [W]
fluid  EnergyOutflow : -0.032982717 [W]
fluid  rho max/avg/min : 1.2017283 1.1831584 1.0249341
fluid  T   max/avg/min : 344.2792 298.65779 293.67971
fluid  P   max/avg/min : 101324.92 101316.16 101307.41
fluid  Prg max/avg/min : 101325.01 101324.87 101322.42
fluid  U   max/avg/min : 0.042541296 -3.4562957e-05 -0.047674381
fluid  K average:  0.026788576
fluid  nu average: 1.5576181e-05

Solving for solid region cilcen
DICPCG:  Solving for h, Initial residual = 0.99978472, Final residual = 1.0750676e-16, No Iterations 1
Tcilcen  max/avg/min : 349.5431 349.54284 349.53101
ExecutionTime = 0.3 s  ClockTime = 0 s

Time = 4


Solving for fluid region fluid
DILUPBiCG:  Solving for Ux, Initial residual = 0.22003144, Final residual = 0.0013912056, No Iterations 1
DILUPBiCG:  Solving for Uy, Initial residual = 0.21114466, Final residual = 0.0011782273, No Iterations 1
DILUPBiCG:  Solving for Uz, Initial residual = 0.22754175, Final residual = 0.00088440276, No Iterations 1
DILUPBiCG:  Solving for h, Initial residual = 0.033852363, Final residual = 1.7591775e-05, No Iterations 1
GAMG:  Solving for p_rgh, Initial residual = 0.082287332, Final residual = 0.00042111434, No Iterations 2
time step continuity errors : sum local = 0.00081767182, global = -1.9856677e-05, cumulative = 0.00068796159
Min/max rho:1.0102534 1.2017185
ExecutionTime = 0.36 s  ClockTime = 0 s
fluid  Inflow      : -7.4872664e-08 [kg/s]
fluid  Outflow     : -9.1433121e-08 [kg/s]
fluid  EnergyInflow  : -0.022122042 [W]
fluid  EnergyOutflow : -0.026861579 [W]
fluid  rho max/avg/min : 1.2017185 1.1798407 1.0201099
fluid  T   max/avg/min : 345.90759 299.5703 293.6821
fluid  P   max/avg/min : 101324.91 101316.16 101307.4
fluid  Prg max/avg/min : 101325.01 101324.84 101322.34
fluid  U   max/avg/min : 0.028212256 3.8498453e-06 -0.038575608
fluid  K average:  0.026850288
fluid  nu average: 1.5662854e-05

Solving for solid region cilcen
DICPCG:  Solving for h, Initial residual = 0.99969729, Final residual = 1.0706506e-16, No Iterations 1
Tcilcen  max/avg/min : 351.15873 351.15832 351.13947
ExecutionTime = 0.36 s  ClockTime = 0 s

Time = 5


Solving for fluid region fluid
DILUPBiCG:  Solving for Ux, Initial residual = 0.24795674, Final residual = 0.0018601363, No Iterations 1
DILUPBiCG:  Solving for Uy, Initial residual = 0.23435471, Final residual = 0.0015328641, No Iterations 1
DILUPBiCG:  Solving for Uz, Initial residual = 0.23172253, Final residual = 0.00085902168, No Iterations 1
DILUPBiCG:  Solving for h, Initial residual = 0.032109516, Final residual = 2.0454396e-05, No Iterations 1
GAMG:  Solving for p_rgh, Initial residual = 0.062688056, Final residual = 0.00028743269, No Iterations 3
time step continuity errors : sum local = 0.0006816455, global = 0.00036770179, cumulative = 0.0010556634
Min/max rho:1.0056029 1.201706
ExecutionTime = 0.42 s  ClockTime = 0 s
fluid  Inflow      : -3.6616827e-07 [kg/s]
fluid  Outflow     : -5.9505199e-08 [kg/s]
fluid  EnergyInflow  : -0.10818888 [W]
fluid  EnergyOutflow : -0.017358376 [W]
fluid  rho max/avg/min : 1.201706 1.1767064 1.0146985
fluid  T   max/avg/min : 347.7526 300.43995 293.68516
fluid  P   max/avg/min : 101324.91 101316.15 101307.4
fluid  Prg max/avg/min : 101325 101324.81 101322.26
fluid  U   max/avg/min : 0.024554509 0.00011205986 -0.043416504
fluid  K average:  0.026908968
fluid  nu average: 1.5745708e-05

Solving for solid region cilcen
DICPCG:  Solving for h, Initial residual = 0.99957998, Final residual = 1.2019628e-16, No Iterations 1
Tcilcen  max/avg/min : 352.98672 352.98613 352.95914
ExecutionTime = 0.43 s  ClockTime = 0 s

Time = 6


Solving for fluid region fluid
DILUPBiCG:  Solving for Ux, Initial residual = 0.2838295, Final residual = 0.00067108191, No Iterations 1
DILUPBiCG:  Solving for Uy, Initial residual = 0.2598109, Final residual = 0.00049442578, No Iterations 1
DILUPBiCG:  Solving for Uz, Initial residual = 0.22020078, Final residual = 0.0003511283, No Iterations 1
DILUPBiCG:  Solving for h, Initial residual = 0.030544254, Final residual = 2.4670371e-05, No Iterations 1
GAMG:  Solving for p_rgh, Initial residual = 0.04143368, Final residual = 0.00022418519, No Iterations 2
time step continuity errors : sum local = 0.00062724056, global = -1.2128383e-05, cumulative = 0.001043535
Min/max rho:1.0003918 1.2016941
ExecutionTime = 0.5 s  ClockTime = 0 s
fluid  Inflow      : -3.8166417e-09 [kg/s]
fluid  Outflow     : -1.3931706e-08 [kg/s]
fluid  EnergyInflow  : -0.0011276733 [W]
fluid  EnergyOutflow : -0.003805279 [W]
fluid  rho max/avg/min : 1.2016941 1.173681 1.0089941
fluid  T   max/avg/min : 349.71888 301.28647 293.68807
fluid  P   max/avg/min : 101324.91 101316.16 101307.4
fluid  Prg max/avg/min : 101325 101324.79 101322.17
fluid  U   max/avg/min : 0.023257211 0.00024952961 -0.040559225
fluid  K average:  0.026965962
fluid  nu average: 1.5826596e-05

Solving for solid region cilcen
DICPCG:  Solving for h, Initial residual = 0.99943673, Final residual = 1.9541775e-16, No Iterations 1
Tcilcen  max/avg/min : 354.93394 354.93314 354.89671
ExecutionTime = 0.5 s  ClockTime = 0 s

Time = 7


Solving for fluid region fluid
DILUPBiCG:  Solving for Ux, Initial residual = 0.21178101, Final residual = 0.00078321174, No Iterations 1
DILUPBiCG:  Solving for Uy, Initial residual = 0.19370562, Final residual = 0.000618826, No Iterations 1
DILUPBiCG:  Solving for Uz, Initial residual = 0.20740974, Final residual = 0.0004176955, No Iterations 1
DILUPBiCG:  Solving for h, Initial residual = 0.029120253, Final residual = 2.7707054e-05, No Iterations 1
GAMG:  Solving for p_rgh, Initial residual = 0.027968956, Final residual = 0.00012668754, No Iterations 2
time step continuity errors : sum local = 0.00040502366, global = -0.00021034433, cumulative = 0.00083319066
Min/max rho:0.99489997 1.2016842
ExecutionTime = 0.56 s  ClockTime = 1 s
fluid  Inflow      : 2.2073199e-07 [kg/s]
fluid  Outflow     : 4.5304943e-08 [kg/s]
fluid  EnergyInflow  : 0.06521796 [W]
fluid  EnergyOutflow : 0.013805181 [W]
fluid  rho max/avg/min : 1.2016842 1.1707261 1.0031543
fluid  T   max/avg/min : 351.75488 302.12001 293.69048
fluid  P   max/avg/min : 101324.91 101316.16 101307.4
fluid  Prg max/avg/min : 101325 101324.77 101322.09
fluid  U   max/avg/min : 0.019285155 0.00035101305 -0.043518955
fluid  K average:  0.027021966
fluid  nu average: 1.5906466e-05

Solving for solid region cilcen
DICPCG:  Solving for h, Initial residual = 0.99926279, Final residual = 1.04812e-16, No Iterations 1
Tcilcen  max/avg/min : 356.94985 356.94881 356.9015
ExecutionTime = 0.56 s  ClockTime = 1 s

Time = 8


Solving for fluid region fluid
DILUPBiCG:  Solving for Ux, Initial residual = 0.2025713, Final residual = 0.00036367171, No Iterations 1
DILUPBiCG:  Solving for Uy, Initial residual = 0.18850011, Final residual = 0.00026830234, No Iterations 1
DILUPBiCG:  Solving for Uz, Initial residual = 0.17787835, Final residual = 0.00027920955, No Iterations 1
DILUPBiCG:  Solving for h, Initial residual = 0.027828576, Final residual = 3.1624856e-05, No Iterations 1
GAMG:  Solving for p_rgh, Initial residual = 0.023247692, Final residual = 0.0001589769, No Iterations 2
time step continuity errors : sum local = 0.00056857164, global = 8.2484759e-05, cumulative = 0.00091567542
Min/max rho:0.98927771 1.2016749
ExecutionTime = 0.63 s  ClockTime = 1 s
fluid  Inflow      : 4.7885824e-08 [kg/s]
fluid  Outflow     : 1.1667806e-07 [kg/s]
fluid  EnergyInflow  : 0.014148451 [W]
fluid  EnergyOutflow : 0.03502292 [W]
fluid  rho max/avg/min : 1.2016749 1.1678181 0.99726894
fluid  T   max/avg/min : 353.83096 302.9467 293.69275
fluid  P   max/avg/min : 101324.91 101316.16 101307.4
fluid  Prg max/avg/min : 101325 101324.75 101322.01
fluid  U   max/avg/min : 0.021283841 0.00044703122 -0.040606135
fluid  K average:  0.027077397
fluid  nu average: 1.5985897e-05

Solving for solid region cilcen
DICPCG:  Solving for h, Initial residual = 0.99905643, Final residual = 1.0073923e-16, No Iterations 1
Tcilcen  max/avg/min : 359.00536 359.00403 358.94423
ExecutionTime = 0.63 s  ClockTime = 1 s

Time = 9


Solving for fluid region fluid
DILUPBiCG:  Solving for Ux, Initial residual = 0.18002931, Final residual = 0.00030877118, No Iterations 1
DILUPBiCG:  Solving for Uy, Initial residual = 0.16187836, Final residual = 0.00022120227, No Iterations 1
DILUPBiCG:  Solving for Uz, Initial residual = 0.13549295, Final residual = 0.00014470291, No Iterations 1
DILUPBiCG:  Solving for h, Initial residual = 0.026668147, Final residual = 3.5762673e-05, No Iterations 1
GAMG:  Solving for p_rgh, Initial residual = 0.016773271, Final residual = 0.00013013753, No Iterations 2
time step continuity errors : sum local = 0.0005311166, global = 0.00017210547, cumulative = 0.0010877809
Min/max rho:0.98361 1.2016647
ExecutionTime = 0.68 s  ClockTime = 1 s
fluid  Inflow      : 5.3722695e-08 [kg/s]
fluid  Outflow     : 1.9725855e-07 [kg/s]
fluid  EnergyInflow  : 0.015873026 [W]
fluid  EnergyOutflow : 0.058981975 [W]
fluid  rho max/avg/min : 1.2016647 1.1649429 0.99139237
fluid  T   max/avg/min : 355.92858 303.7703 293.69526
fluid  P   max/avg/min : 101324.91 101316.16 101307.4
fluid  Prg max/avg/min : 101325 101324.73 101321.92
fluid  U   max/avg/min : 0.023431299 0.00055962606 -0.039421341
fluid  K average:  0.027132511
fluid  nu average: 1.6065238e-05

Solving for solid region cilcen
DICPCG:  Solving for h, Initial residual = 0.99881432, Final residual = 1.7613809e-16, No Iterations 1
Tcilcen  max/avg/min : 361.08224 361.08059 361.0065
ExecutionTime = 0.68 s  ClockTime = 1 s

Time = 10


Solving for fluid region fluid
DILUPBiCG:  Solving for Ux, Initial residual = 0.15500926, Final residual = 0.00019715631, No Iterations 1
DILUPBiCG:  Solving for Uy, Initial residual = 0.14320641, Final residual = 0.00013895647, No Iterations 1
DILUPBiCG:  Solving for Uz, Initial residual = 0.13160835, Final residual = 9.6976489e-05, No Iterations 1
DILUPBiCG:  Solving for h, Initial residual = 0.02559432, Final residual = 4.0638117e-05, No Iterations 1
Radiation solver iter: 0
GAMG:  Solving for ILambda_0_0, Initial residual = 0.99999333, Final residual = 4.6949239e-15, No Iterations 1
GAMG:  Solving for ILambda_1_0, Initial residual = 0.99999333, Final residual = 1.1755486e-13, No Iterations 1
GAMG:  Solving for ILambda_2_0, Initial residual = 0.35976085, Final residual = 1.2818761e-11, No Iterations 1
GAMG:  Solving for ILambda_3_0, Initial residual = 0.35976085, Final residual = 2.8657215e-12, No Iterations 1
Radiation solver iter: 1
GAMG:  Solving for ILambda_0_0, Initial residual = 2.5352981e-12, Final residual = 2.5352981e-12, No Iterations 0
GAMG:  Solving for ILambda_1_0, Initial residual = 6.3480608e-11, Final residual = 6.3480608e-11, No Iterations 0
GAMG:  Solving for ILambda_2_0, Initial residual = 3.7994641e-11, Final residual = 3.7994641e-11, No Iterations 0
GAMG:  Solving for ILambda_3_0, Initial residual = 8.493961e-12, Final residual = 8.493961e-12, No Iterations 0
GAMG:  Solving for p_rgh, Initial residual = 0.014408286, Final residual = 9.5600669e-05, No Iterations 2
time step continuity errors : sum local = 0.0004353416, global = 0.00021077008, cumulative = 0.001298551
Min/max rho:0.97794862 1.2016593
ExecutionTime = 0.77 s  ClockTime = 1 s
fluid  Inflow      : 1.1644352e-07 [kg/s]
fluid  Outflow     : 2.9222564e-07 [kg/s]
fluid  EnergyInflow  : 0.034404658 [W]
fluid  EnergyOutflow : 0.087210788 [W]
fluid  rho max/avg/min : 1.2016593 1.1620911 0.98555764
fluid  T   max/avg/min : 358.03585 304.59317 293.69657
fluid  P   max/avg/min : 101324.91 101316.16 101307.4
fluid  Prg max/avg/min : 101325 101324.71 101321.84
fluid  U   max/avg/min : 0.025705026 0.0007199709 -0.034795148
fluid  K average:  0.027187472
fluid  nu average: 1.6144712e-05

Solving for solid region cilcen
DICPCG:  Solving for h, Initial residual = 0.99849519, Final residual = 1.7899896e-16, No Iterations 1
Tcilcen  max/avg/min : 363.11703 363.11504 363.02573
ExecutionTime = 0.77 s  ClockTime = 1 s

Time = 11


Solving for fluid region fluid
DILUPBiCG:  Solving for Ux, Initial residual = 0.13638439, Final residual = 0.00016515683, No Iterations 1
DILUPBiCG:  Solving for Uy, Initial residual = 0.12082281, Final residual = 0.00011498897, No Iterations 1
DILUPBiCG:  Solving for Uz, Initial residual = 0.14372102, Final residual = 5.4960998e-05, No Iterations 1
DILUPBiCG:  Solving for h, Initial residual = 0.024360838, Final residual = 4.5373977e-05, No Iterations 1
GAMG:  Solving for p_rgh, Initial residual = 0.01096797, Final residual = 2.1783207e-05, No Iterations 3
time step continuity errors : sum local = 0.00011235389, global = 9.9356084e-05, cumulative = 0.001397907
Min/max rho:0.97246488 1.2016532
ExecutionTime = 0.83 s  ClockTime = 1 s
fluid  Inflow      : 3.10109e-07 [kg/s]
fluid  Outflow     : 3.9297191e-07 [kg/s]
fluid  EnergyInflow  : 0.091625486 [W]
fluid  EnergyOutflow : 0.11716353 [W]
fluid  rho max/avg/min : 1.2016532 1.1592634 0.97989649
fluid  T   max/avg/min : 360.10443 305.41453 293.69759
fluid  P   max/avg/min : 101324.91 101316.16 101307.4
fluid  Prg max/avg/min : 101325 101324.69 101321.75
fluid  U   max/avg/min : 0.028067753 0.0009281653 -0.031373672
fluid  K average:  0.027242237
fluid  nu average: 1.6224225e-05

Solving for solid region cilcen
DICPCG:  Solving for h, Initial residual = 0.99819802, Final residual = 8.6907731e-17, No Iterations 1
Tcilcen  max/avg/min : 365.16576 365.16336 365.05636
ExecutionTime = 0.83 s  ClockTime = 1 s

Time = 12


Solving for fluid region fluid
DILUPBiCG:  Solving for Ux, Initial residual = 0.13950786, Final residual = 0.00015060928, No Iterations 1
DILUPBiCG:  Solving for Uy, Initial residual = 0.12625047, Final residual = 0.00010250241, No Iterations 1
DILUPBiCG:  Solving for Uz, Initial residual = 0.17370664, Final residual = 9.4426196e-05, No Iterations 1
DILUPBiCG:  Solving for h, Initial residual = 0.023461608, Final residual = 5.0620232e-05, No Iterations 1
GAMG:  Solving for p_rgh, Initial residual = 0.010047118, Final residual = 2.2105865e-05, No Iterations 3
time step continuity errors : sum local = 0.00012506217, global = 4.3135152e-05, cumulative = 0.0014410422
Min/max rho:0.96700546 1.2016505
ExecutionTime = 0.89 s  ClockTime = 1 s
fluid  Inflow      : 4.7499344e-07 [kg/s]
fluid  Outflow     : 5.1096813e-07 [kg/s]
fluid  EnergyInflow  : 0.14034261 [W]
fluid  EnergyOutflow : 0.15222675 [W]
fluid  rho max/avg/min : 1.2016505 1.1564521 0.97430133
fluid  T   max/avg/min : 362.17255 306.23675 293.69827
fluid  P   max/avg/min : 101324.91 101316.16 101307.4
fluid  Prg max/avg/min : 101325 101324.67 101321.67
fluid  U   max/avg/min : 0.030463268 0.0011557695 -0.027714037
fluid  K average:  0.027296961
fluid  nu average: 1.6304013e-05

Solving for solid region cilcen
DICPCG:  Solving for h, Initial residual = 0.99783902, Final residual = 7.6935993e-17, No Iterations 1
Tcilcen  max/avg/min : 367.21411 367.21125 367.08411
ExecutionTime = 0.89 s  ClockTime = 1 s

Time = 13


Solving for fluid region fluid
DILUPBiCG:  Solving for Ux, Initial residual = 0.11387347, Final residual = 0.00014568058, No Iterations 1
DILUPBiCG:  Solving for Uy, Initial residual = 0.10094729, Final residual = 9.9614747e-05, No Iterations 1
DILUPBiCG:  Solving for Uz, Initial residual = 0.15649425, Final residual = 7.526619e-05, No Iterations 1
DILUPBiCG:  Solving for h, Initial residual = 0.022637926, Final residual = 5.6542005e-05, No Iterations 1
GAMG:  Solving for p_rgh, Initial residual = 0.0095264067, Final residual = 3.0636329e-05, No Iterations 3
time step continuity errors : sum local = 0.00018716679, global = -5.0609938e-06, cumulative = 0.0014359812
Min/max rho:0.96160811 1.2016481
ExecutionTime = 0.95 s  ClockTime = 1 s
fluid  Inflow      : 6.6951835e-07 [kg/s]
fluid  Outflow     : 6.6529749e-07 [kg/s]
fluid  EnergyInflow  : 0.19781737 [W]
fluid  EnergyOutflow : 0.1980368 [W]
fluid  rho max/avg/min : 1.2016481 1.1536535 0.96878414
fluid  T   max/avg/min : 364.23529 307.06079 293.6989
fluid  P   max/avg/min : 101324.91 101316.16 101307.4
fluid  Prg max/avg/min : 101325 101324.65 101321.59
fluid  U   max/avg/min : 0.032828548 0.0014073613 -0.024520134
fluid  K average:  0.027351709
fluid  nu average: 1.6384164e-05

Solving for solid region cilcen
DICPCG:  Solving for h, Initial residual = 0.99742316, Final residual = 1.2159951e-16, No Iterations 1
Tcilcen  max/avg/min : 369.25729 369.25391 369.10402
ExecutionTime = 0.95 s  ClockTime = 1 s

Time = 14


Solving for fluid region fluid
DILUPBiCG:  Solving for Ux, Initial residual = 0.099785632, Final residual = 9.8237238e-05, No Iterations 1
DILUPBiCG:  Solving for Uy, Initial residual = 0.090171578, Final residual = 6.6695862e-05, No Iterations 1
DILUPBiCG:  Solving for Uz, Initial residual = 0.16858503, Final residual = 6.2297614e-05, No Iterations 1
DILUPBiCG:  Solving for h, Initial residual = 0.021873128, Final residual = 6.3858772e-05, No Iterations 1
GAMG:  Solving for p_rgh, Initial residual = 0.0085736641, Final residual = 2.6494292e-05, No Iterations 3
time step continuity errors : sum local = 0.00017717377, global = 3.0534788e-05, cumulative = 0.001466516
Min/max rho:0.95628388 1.2016463
ExecutionTime = 1.01 s  ClockTime = 1 s
fluid  Inflow      : 8.545635e-07 [kg/s]
fluid  Outflow     : 8.8002949e-07 [kg/s]
fluid  EnergyInflow  : 0.25249121 [W]
fluid  EnergyOutflow : 0.26170428 [W]
fluid  rho max/avg/min : 1.2016463 1.1508657 0.96335142
fluid  T   max/avg/min : 366.28953 307.88712 293.6995
fluid  P   max/avg/min : 101324.91 101316.16 101307.4
fluid  Prg max/avg/min : 101325 101324.62 101321.51
fluid  U   max/avg/min : 0.035251827 0.0017186495 -0.021889834
fluid  K average:  0.027406513
fluid  nu average: 1.6464724e-05

Solving for solid region cilcen
DICPCG:  Solving for h, Initial residual = 0.99694598, Final residual = 9.7571923e-17, No Iterations 1
Tcilcen  max/avg/min : 371.29224 371.28827 371.11284
ExecutionTime = 1.01 s  ClockTime = 1 s

Time = 15


Solving for fluid region fluid
DILUPBiCG:  Solving for Ux, Initial residual = 0.090321114, Final residual = 0.00010488659, No Iterations 1
DILUPBiCG:  Solving for Uy, Initial residual = 0.081115381, Final residual = 7.1686402e-05, No Iterations 1
DILUPBiCG:  Solving for Uz, Initial residual = 0.19347878, Final residual = 9.5382559e-05, No Iterations 1
DILUPBiCG:  Solving for h, Initial residual = 0.021156082, Final residual = 7.1569072e-05, No Iterations 1
GAMG:  Solving for p_rgh, Initial residual = 0.007390443, Final residual = 3.0140671e-05, No Iterations 3
time step continuity errors : sum local = 0.00021872342, global = 9.3198884e-05, cumulative = 0.0015597149
Min/max rho:0.95103926 1.2016463
ExecutionTime = 1.07 s  ClockTime = 1 s
fluid  Inflow      : 1.100051e-06 [kg/s]
fluid  Outflow     : 1.1777788e-06 [kg/s]
fluid  EnergyInflow  : 0.32502349 [W]
fluid  EnergyOutflow : 0.34991106 [W]
fluid  rho max/avg/min : 1.2016449 1.1480876 0.95800702
fluid  T   max/avg/min : 368.333 308.71592 293.70008
fluid  P   max/avg/min : 101324.91 101316.16 101307.4
fluid  Prg max/avg/min : 101325 101324.6 101321.43
fluid  U   max/avg/min : 0.037588372 0.0020784202 -0.017912531
fluid  K average:  0.027461387
fluid  nu average: 1.6545711e-05

Solving for solid region cilcen
DICPCG:  Solving for h, Initial residual = 0.99640186, Final residual = 1.6648886e-16, No Iterations 1
Tcilcen  max/avg/min : 373.31672 373.31208 373.10816
ExecutionTime = 1.08 s  ClockTime = 1 s

Time = 16


Solving for fluid region fluid
DILUPBiCG:  Solving for Ux, Initial residual = 0.058967074, Final residual = 5.6705857e-05, No Iterations 1
DILUPBiCG:  Solving for Uy, Initial residual = 0.054641216, Final residual = 3.9870452e-05, No Iterations 1
DILUPBiCG:  Solving for Uz, Initial residual = 0.20677274, Final residual = 0.00010521678, No Iterations 1
DILUPBiCG:  Solving for h, Initial residual = 0.020476663, Final residual = 8.0372168e-05, No Iterations 1
GAMG:  Solving for p_rgh, Initial residual = 0.0070769438, Final residual = 2.3935553e-05, No Iterations 3
time step continuity errors : sum local = 0.00018689081, global = 6.757111e-05, cumulative = 0.001627286
Min/max rho:0.94587848 1.2016463
ExecutionTime = 1.14 s  ClockTime = 1 s
fluid  Inflow      : 1.5956293e-06 [kg/s]
fluid  Outflow     : 1.6519836e-06 [kg/s]
fluid  EnergyInflow  : 0.47144815 [W]
fluid  EnergyOutflow : 0.49026616 [W]
fluid  rho max/avg/min : 1.2016438 1.1453191 0.95275322
fluid  T   max/avg/min : 370.36421 309.54727 293.70034
fluid  P   max/avg/min : 101324.91 101316.15 101307.39
fluid  Prg max/avg/min : 101325 101324.58 101321.35
fluid  U   max/avg/min : 0.039866241 0.0025518877 -0.011810967
fluid  K average:  0.027516336
fluid  nu average: 1.662713e-05

Solving for solid region cilcen
DICPCG:  Solving for h, Initial residual = 0.99578514, Final residual = 1.1864887e-16, No Iterations 1
Tcilcen  max/avg/min : 375.32922 375.32385 375.08831
ExecutionTime = 1.14 s  ClockTime = 1 s

Time = 17


Solving for fluid region fluid
DILUPBiCG:  Solving for Ux, Initial residual = 0.0608917, Final residual = 8.2698954e-05, No Iterations 1
DILUPBiCG:  Solving for Uy, Initial residual = 0.056334481, Final residual = 5.6033631e-05, No Iterations 1
DILUPBiCG:  Solving for Uz, Initial residual = 0.2655155, Final residual = 0.00020958068, No Iterations 1
DILUPBiCG:  Solving for h, Initial residual = 0.019811943, Final residual = 8.9256491e-05, No Iterations 1
GAMG:  Solving for p_rgh, Initial residual = 0.0063778516, Final residual = 2.5999803e-05, No Iterations 3
time step continuity errors : sum local = 0.00022834931, global = 9.1835733e-05, cumulative = 0.0017191217
Min/max rho:0.94080345 1.2016463
ExecutionTime = 1.2 s  ClockTime = 1 s
fluid  Inflow      : 2.2097479e-06 [kg/s]
fluid  Outflow     : 2.2863389e-06 [kg/s]
fluid  EnergyInflow  : 0.65289698 [W]
fluid  EnergyOutflow : 0.67795535 [W]
fluid  rho max/avg/min : 1.2016439 1.1425611 0.94759139
fluid  T   max/avg/min : 372.3818 310.38079 293.70033
fluid  P   max/avg/min : 101324.91 101316.15 101307.39
fluid  Prg max/avg/min : 101325 101324.56 101321.28
fluid  U   max/avg/min : 0.042157183 0.0030914966 -0.0094777734
fluid  K average:  0.027571335
fluid  nu average: 1.6708946e-05

Solving for solid region cilcen
DICPCG:  Solving for h, Initial residual = 0.99508901, Final residual = 1.012388e-16, No Iterations 1
Tcilcen  max/avg/min : 377.32842 377.32221 377.05177
ExecutionTime = 1.2 s  ClockTime = 1 s

Time = 18


Solving for fluid region fluid
DILUPBiCG:  Solving for Ux, Initial residual = 0.041554473, Final residual = 3.989735e-05, No Iterations 1
DILUPBiCG:  Solving for Uy, Initial residual = 0.039655076, Final residual = 2.8894074e-05, No Iterations 1
DILUPBiCG:  Solving for Uz, Initial residual = 0.27371798, Final residual = 0.00025071179, No Iterations 1
DILUPBiCG:  Solving for h, Initial residual = 0.019177301, Final residual = 9.9693548e-05, No Iterations 1
GAMG:  Solving for p_rgh, Initial residual = 0.0056543307, Final residual = 2.0513812e-05, No Iterations 3
time step continuity errors : sum local = 0.00019335805, global = 2.1901679e-05, cumulative = 0.0017410234
Min/max rho:0.93581572 1.2016463
ExecutionTime = 1.25 s  ClockTime = 1 s
fluid  Inflow      : 3.2621941e-06 [kg/s]
fluid  Outflow     : 3.2804601e-06 [kg/s]
fluid  EnergyInflow  : 0.96385506 [W]
fluid  EnergyOutflow : 0.97196332 [W]
fluid  rho max/avg/min : 1.2016438 1.1398141 0.94252124
fluid  T   max/avg/min : 374.38511 311.21634 293.70036
fluid  P   max/avg/min : 101324.91 101316.15 101307.38
fluid  Prg max/avg/min : 101325 101324.54 101321.2
fluid  U   max/avg/min : 0.044371006 0.0038269079 -0.003372366
fluid  K average:  0.027626374
fluid  nu average: 1.6791145e-05

Solving for solid region cilcen
DICPCG:  Solving for h, Initial residual = 0.99430435, Final residual = 1.7561204e-16, No Iterations 1
Tcilcen  max/avg/min : 379.31364 379.30652 378.99776
ExecutionTime = 1.25 s  ClockTime = 1 s

Time = 19


Solving for fluid region fluid
DILUPBiCG:  Solving for Ux, Initial residual = 0.040485392, Final residual = 5.1734182e-05, No Iterations 1
DILUPBiCG:  Solving for Uy, Initial residual = 0.039147618, Final residual = 3.8569057e-05, No Iterations 1
DILUPBiCG:  Solving for Uz, Initial residual = 0.32652882, Final residual = 0.00041980045, No Iterations 1
DILUPBiCG:  Solving for h, Initial residual = 0.018529408, Final residual = 0.00011018875, No Iterations 1
GAMG:  Solving for p_rgh, Initial residual = 0.0058903039, Final residual = 2.2005308e-05, No Iterations 3
time step continuity errors : sum local = 0.00021325579, global = 8.6013471e-05, cumulative = 0.0018270369
Min/max rho:0.93091489 1.2016463
ExecutionTime = 1.32 s  ClockTime = 1 s
fluid  Inflow      : 4.6971155e-06 [kg/s]
fluid  Outflow     : 4.7688507e-06 [kg/s]
fluid  EnergyInflow  : 1.3878201 [W]
fluid  EnergyOutflow : 1.4120411 [W]
fluid  rho max/avg/min : 1.2016444 1.1370813 0.93754406
fluid  T   max/avg/min : 376.37275 312.05295 293.70021
fluid  P   max/avg/min : 101324.91 101316.15 101307.37
fluid  Prg max/avg/min : 101325 101324.51 101321.12
fluid  U   max/avg/min : 0.04651919 0.0047618401 0
fluid  K average:  0.027681388
fluid  nu average: 1.6873634e-05

Solving for solid region cilcen
DICPCG:  Solving for h, Initial residual = 0.99342369, Final residual = 8.0821698e-17, No Iterations 1
Tcilcen  max/avg/min : 381.28351 381.27538 380.92477
ExecutionTime = 1.32 s  ClockTime = 1 s

Time = 20


Solving for fluid region fluid
DILUPBiCG:  Solving for Ux, Initial residual = 0.032820418, Final residual = 4.1194901e-05, No Iterations 1
DILUPBiCG:  Solving for Uy, Initial residual = 0.031556032, Final residual = 3.0306481e-05, No Iterations 1
DILUPBiCG:  Solving for Uz, Initial residual = 0.30864221, Final residual = 0.00047039667, No Iterations 1
DILUPBiCG:  Solving for h, Initial residual = 0.017867748, Final residual = 0.00013343291, No Iterations 1
Radiation solver iter: 0
GAMG:  Solving for ILambda_0_0, Initial residual = 0.99986045, Final residual = 9.1989371e-16, No Iterations 1
GAMG:  Solving for ILambda_1_0, Initial residual = 0.99986045, Final residual = 7.2781885e-15, No Iterations 1
GAMG:  Solving for ILambda_2_0, Initial residual = 0.97410924, Final residual = 1.923329e-12, No Iterations 1
GAMG:  Solving for ILambda_3_0, Initial residual = 0.97410924, Final residual = 4.3772803e-13, No Iterations 1
Radiation solver iter: 1
GAMG:  Solving for ILambda_0_0, Initial residual = 5.7994194e-13, Final residual = 5.7994194e-13, No Iterations 0
GAMG:  Solving for ILambda_1_0, Initial residual = 4.588494e-12, Final residual = 4.588494e-12, No Iterations 0
GAMG:  Solving for ILambda_2_0, Initial residual = 1.0351152e-11, Final residual = 1.0351152e-11, No Iterations 0
GAMG:  Solving for ILambda_3_0, Initial residual = 2.3558058e-12, Final residual = 2.3558058e-12, No Iterations 0
GAMG:  Solving for p_rgh, Initial residual = 0.0065216982, Final residual = 1.9382608e-05, No Iterations 3
time step continuity errors : sum local = 0.00016858507, global = 2.9282177e-06, cumulative = 0.0018299651
Min/max rho:0.9261022 1.2016463
ExecutionTime = 1.39 s  ClockTime = 1 s
fluid  Inflow      : 6.7623746e-06 [kg/s]
fluid  Outflow     : 6.7648167e-06 [kg/s]
fluid  EnergyInflow  : 1.9980261 [W]
fluid  EnergyOutflow : 2.0021369 [W]
fluid  rho max/avg/min : 1.201645 1.1343652 0.93265975
fluid  T   max/avg/min : 378.3439 312.8899 293.70005
fluid  P   max/avg/min : 101324.91 101316.14 101307.36
fluid  Prg max/avg/min : 101325 101324.48 101321.03
fluid  U   max/avg/min : 0.048613461 0.0059444353 0
fluid  K average:  0.027736331
fluid  nu average: 1.6956344e-05

Solving for solid region cilcen
DICPCG:  Solving for h, Initial residual = 0.9909195, Final residual = 2.0465635e-16, No Iterations 1
Tcilcen  max/avg/min : 382.90741 382.89825 382.50665
ExecutionTime = 1.39 s  ClockTime = 1 s

Time = 21


Solving for fluid region fluid
DILUPBiCG:  Solving for Ux, Initial residual = 0.032462018, Final residual = 4.8257845e-05, No Iterations 1
DILUPBiCG:  Solving for Uy, Initial residual = 0.031476522, Final residual = 3.60987e-05, No Iterations 1
DILUPBiCG:  Solving for Uz, Initial residual = 0.26678216, Final residual = 0.00045660537, No Iterations 1
DILUPBiCG:  Solving for h, Initial residual = 0.015979627, Final residual = 6.2322553e-05, No Iterations 2
GAMG:  Solving for p_rgh, Initial residual = 0.010071597, Final residual = 6.6586631e-05, No Iterations 3
time step continuity errors : sum local = 0.00052295976, global = 0.00014329131, cumulative = 0.0019732564
Min/max rho:0.92217208 1.2016463
ExecutionTime = 1.46 s  ClockTime = 1 s
fluid  Inflow      : 1.0512393e-05 [kg/s]
fluid  Outflow     : 1.0631898e-05 [kg/s]
fluid  EnergyInflow  : 3.1060147 [W]
fluid  EnergyOutflow : 3.1452148 [W]
fluid  rho max/avg/min : 1.2016458 1.1315997 0.92848972
fluid  T   max/avg/min : 380.04316 313.73926 293.69981
fluid  P   max/avg/min : 101324.91 101316.11 101307.31
fluid  Prg max/avg/min : 101325 101324.44 101320.92
fluid  U   max/avg/min : 0.05072133 0.0078615227 0
fluid  K average:  0.027792129
fluid  nu average: 1.7040205e-05

Solving for solid region cilcen
DICPCG:  Solving for h, Initial residual = 0.99019259, Final residual = 1.0287832e-16, No Iterations 1
Tcilcen  max/avg/min : 384.59343 384.58311 384.14552
ExecutionTime = 1.46 s  ClockTime = 1 s

Time = 22


Solving for fluid region fluid
DILUPBiCG:  Solving for Ux, Initial residual = 0.05177002, Final residual = 8.8283192e-05, No Iterations 1
DILUPBiCG:  Solving for Uy, Initial residual = 0.04867485, Final residual = 6.6225539e-05, No Iterations 1
DILUPBiCG:  Solving for Uz, Initial residual = 0.24488675, Final residual = 0.00043851362, No Iterations 1
DILUPBiCG:  Solving for h, Initial residual = 0.015257529, Final residual = 6.3477815e-05, No Iterations 2
GAMG:  Solving for p_rgh, Initial residual = 0.011506554, Final residual = 6.2151151e-05, No Iterations 3
time step continuity errors : sum local = 0.00043355303, global = 4.4887875e-06, cumulative = 0.0019777452
Min/max rho:0.91812646 1.2016463
ExecutionTime = 1.52 s  ClockTime = 1 s
fluid  Inflow      : 1.4703392e-05 [kg/s]
fluid  Outflow     : 1.4707136e-05 [kg/s]
fluid  EnergyInflow  : 4.3442967 [W]
fluid  EnergyOutflow : 4.3500603 [W]
fluid  rho max/avg/min : 1.2016459 1.1288592 0.92433856
fluid  T   max/avg/min : 381.74984 314.5854 293.69957
fluid  P   max/avg/min : 101324.91 101316.1 101307.29
fluid  Prg max/avg/min : 101325 101324.41 101320.84
fluid  U   max/avg/min : 0.052935778 0.010054387 0
fluid  K average:  0.027847637
fluid  nu average: 1.7123908e-05

Solving for solid region cilcen
DICPCG:  Solving for h, Initial residual = 0.98903942, Final residual = 1.0202896e-16, No Iterations 1
Tcilcen  max/avg/min : 386.28649 386.27488 385.78711
ExecutionTime = 1.52 s  ClockTime = 1 s

Time = 23


Solving for fluid region fluid
DILUPBiCG:  Solving for Ux, Initial residual = 0.055881522, Final residual = 0.0001114859, No Iterations 1
DILUPBiCG:  Solving for Uy, Initial residual = 0.053176063, Final residual = 8.6720071e-05, No Iterations 1
DILUPBiCG:  Solving for Uz, Initial residual = 0.18117718, Final residual = 0.00032766677, No Iterations 1
DILUPBiCG:  Solving for h, Initial residual = 0.0145342, Final residual = 6.5893014e-05, No Iterations 2
GAMG:  Solving for p_rgh, Initial residual = 0.013176037, Final residual = 1.8619832e-05, No Iterations 4
time step continuity errors : sum local = 0.00011758697, global = 3.2191936e-05, cumulative = 0.0020099371
Min/max rho:0.91409985 1.2016463
ExecutionTime = 1.58 s  ClockTime = 2 s
fluid  Inflow      : 1.846767e-05 [kg/s]
fluid  Outflow     : 1.8494518e-05 [kg/s]
fluid  EnergyInflow  : 5.4564984 [W]
fluid  EnergyOutflow : 5.470112 [W]
fluid  rho max/avg/min : 1.2016459 1.1261422 0.92022468
fluid  T   max/avg/min : 383.45652 315.42921 293.69931
fluid  P   max/avg/min : 101324.91 101316.1 101307.29
fluid  Prg max/avg/min : 101325 101324.39 101320.78
fluid  U   max/avg/min : 0.055149289 0.012203123 0
fluid  K average:  0.027902907
fluid  nu average: 1.7207543e-05

Solving for solid region cilcen
DICPCG:  Solving for h, Initial residual = 0.98772219, Final residual = 1.0158894e-16, No Iterations 1
Tcilcen  max/avg/min : 387.97959 387.96659 387.42463
ExecutionTime = 1.58 s  ClockTime = 2 s

Time = 24


Solving for fluid region fluid
DILUPBiCG:  Solving for Ux, Initial residual = 0.052489885, Final residual = 0.00010909297, No Iterations 1
DILUPBiCG:  Solving for Uy, Initial residual = 0.050905873, Final residual = 8.8005473e-05, No Iterations 1
DILUPBiCG:  Solving for Uz, Initial residual = 0.13591991, Final residual = 0.0002436588, No Iterations 1
DILUPBiCG:  Solving for h, Initial residual = 0.013879177, Final residual = 6.9376734e-05, No Iterations 2
GAMG:  Solving for p_rgh, Initial residual = 0.014569957, Final residual = 1.8309446e-05, No Iterations 4
time step continuity errors : sum local = 0.00010920365, global = 1.391538e-05, cumulative = 0.0020238525
Min/max rho:0.91010845 1.2016463
ExecutionTime = 1.65 s  ClockTime = 2 s
fluid  Inflow      : 2.1947605e-05 [kg/s]
fluid  Outflow     : 2.1959211e-05 [kg/s]
fluid  EnergyInflow  : 6.4846878 [W]
fluid  EnergyOutflow : 6.4950644 [W]
fluid  rho max/avg/min : 1.2016459 1.1234489 0.91615632
fluid  T   max/avg/min : 385.15946 316.27075 293.69903
fluid  P   max/avg/min : 101324.91 101316.1 101307.29
fluid  Prg max/avg/min : 101325 101324.37 101320.73
fluid  U   max/avg/min : 0.057364476 0.014307659 0
fluid  K average:  0.027957942
fluid  nu average: 1.7291127e-05

Solving for solid region cilcen
DICPCG:  Solving for h, Initial residual = 0.9862498, Final residual = 1.7507143e-16, No Iterations 1
Tcilcen  max/avg/min : 389.66908 389.65454 389.05452
ExecutionTime = 1.65 s  ClockTime = 2 s

Time = 25


Solving for fluid region fluid
DILUPBiCG:  Solving for Ux, Initial residual = 0.043916617, Final residual = 9.4371031e-05, No Iterations 1
DILUPBiCG:  Solving for Uy, Initial residual = 0.043554331, Final residual = 7.8644716e-05, No Iterations 1
DILUPBiCG:  Solving for Uz, Initial residual = 0.11058422, Final residual = 0.00019616542, No Iterations 1
DILUPBiCG:  Solving for h, Initial residual = 0.013283901, Final residual = 7.175441e-05, No Iterations 2
GAMG:  Solving for p_rgh, Initial residual = 0.015261557, Final residual = 5.6918683e-05, No Iterations 3
time step continuity errors : sum local = 0.00032503279, global = 0.00014039485, cumulative = 0.0021642474
Min/max rho:0.90616021 1.2016463
ExecutionTime = 1.72 s  ClockTime = 2 s
fluid  Inflow      : 2.5221687e-05 [kg/s]
fluid  Outflow     : 2.5338777e-05 [kg/s]
fluid  EnergyInflow  : 7.4520552 [W]
fluid  EnergyOutflow : 7.4950969 [W]
fluid  rho max/avg/min : 1.2016459 1.1207803 0.91213773
fluid  T   max/avg/min : 386.85651 317.10977 293.69865
fluid  P   max/avg/min : 101324.91 101316.1 101307.28
fluid  Prg max/avg/min : 101325 101324.35 101320.66
fluid  U   max/avg/min : 0.059583405 0.016436318 0
fluid  K average:  0.028012723
fluid  nu average: 1.7374636e-05

Solving for solid region cilcen
DICPCG:  Solving for h, Initial residual = 0.98462313, Final residual = 2.3561634e-16, No Iterations 1
Tcilcen  max/avg/min : 391.35281 391.33661 390.67479
ExecutionTime = 1.73 s  ClockTime = 2 s

Time = 26


Solving for fluid region fluid
DILUPBiCG:  Solving for Ux, Initial residual = 0.040338443, Final residual = 8.4112341e-05, No Iterations 1
DILUPBiCG:  Solving for Uy, Initial residual = 0.04045618, Final residual = 7.1581243e-05, No Iterations 1
DILUPBiCG:  Solving for Uz, Initial residual = 0.095907419, Final residual = 0.00016596456, No Iterations 1
DILUPBiCG:  Solving for h, Initial residual = 0.012729698, Final residual = 7.3245755e-05, No Iterations 2
GAMG:  Solving for p_rgh, Initial residual = 0.015758805, Final residual = 6.2481348e-05, No Iterations 3
time step continuity errors : sum local = 0.00034758659, global = -7.8172601e-06, cumulative = 0.0021564301
Min/max rho:0.90225938 1.2016463
ExecutionTime = 1.8 s  ClockTime = 2 s
fluid  Inflow      : 2.8750057e-05 [kg/s]
fluid  Outflow     : 2.8743537e-05 [kg/s]
fluid  EnergyInflow  : 8.494555 [W]
fluid  EnergyOutflow : 8.5028367 [W]
fluid  rho max/avg/min : 1.2016458 1.1181366 0.90817079
fluid  T   max/avg/min : 388.54647 317.94621 293.69822
fluid  P   max/avg/min : 101324.91 101316.09 101307.27
fluid  Prg max/avg/min : 101325 101324.32 101320.59
fluid  U   max/avg/min : 0.061813623 0.018685974 0
fluid  K average:  0.028067244
fluid  nu average: 1.745807e-05

Solving for solid region cilcen
DICPCG:  Solving for h, Initial residual = 0.98284148, Final residual = 9.1985622e-17, No Iterations 1
Tcilcen  max/avg/min : 393.02962 393.01161 392.28442
ExecutionTime = 1.8 s  ClockTime = 2 s

Time = 27


Solving for fluid region fluid
DILUPBiCG:  Solving for Ux, Initial residual = 0.036386511, Final residual = 7.7292839e-05, No Iterations 1
DILUPBiCG:  Solving for Uy, Initial residual = 0.036694723, Final residual = 6.6906283e-05, No Iterations 1
DILUPBiCG:  Solving for Uz, Initial residual = 0.088890208, Final residual = 0.00015110646, No Iterations 1
DILUPBiCG:  Solving for h, Initial residual = 0.012192526, Final residual = 7.251419e-05, No Iterations 2
GAMG:  Solving for p_rgh, Initial residual = 0.01608652, Final residual = 6.8653321e-05, No Iterations 3
time step continuity errors : sum local = 0.00037722876, global = 0.0001896085, cumulative = 0.0023460386
Min/max rho:0.89840754 1.2016463
ExecutionTime = 1.88 s  ClockTime = 2 s
fluid  Inflow      : 3.2036013e-05 [kg/s]
fluid  Outflow     : 3.2194146e-05 [kg/s]
fluid  EnergyInflow  : 9.4654309 [W]
fluid  EnergyOutflow : 9.5244396 [W]
fluid  rho max/avg/min : 1.2016458 1.1155217 0.90425552
fluid  T   max/avg/min : 390.22889 318.77915 293.69774
fluid  P   max/avg/min : 101324.91 101316.09 101307.26
fluid  Prg max/avg/min : 101325 101324.3 101320.53
fluid  U   max/avg/min : 0.064260146 0.020992135 0
fluid  K average:  0.028121442
fluid  nu average: 1.7541345e-05

Solving for solid region cilcen
DICPCG:  Solving for h, Initial residual = 0.98090426, Final residual = 2.2067583e-16, No Iterations 1
Tcilcen  max/avg/min : 394.69904 394.67909 393.88312
ExecutionTime = 1.89 s  ClockTime = 2 s

Time = 28


Solving for fluid region fluid
DILUPBiCG:  Solving for Ux, Initial residual = 0.032398178, Final residual = 6.6946374e-05, No Iterations 1
DILUPBiCG:  Solving for Uy, Initial residual = 0.032958861, Final residual = 5.8968631e-05, No Iterations 1
DILUPBiCG:  Solving for Uz, Initial residual = 0.079272664, Final residual = 0.0001312288, No Iterations 1
DILUPBiCG:  Solving for h, Initial residual = 0.011685015, Final residual = 7.2501671e-05, No Iterations 2
GAMG:  Solving for p_rgh, Initial residual = 0.01671469, Final residual = 7.1002062e-05, No Iterations 3
time step continuity errors : sum local = 0.000385329, global = -4.04115e-05, cumulative = 0.0023056271
Min/max rho:0.89460526 1.2016463
ExecutionTime = 1.96 s  ClockTime = 2 s
fluid  Inflow      : 3.5691865e-05 [kg/s]
fluid  Outflow     : 3.5658162e-05 [kg/s]
fluid  EnergyInflow  : 10.545597 [W]
fluid  EnergyOutflow : 10.550351 [W]
fluid  rho max/avg/min : 1.2016458 1.1129355 0.90039279
fluid  T   max/avg/min : 391.90306 319.60853 293.69725
fluid  P   max/avg/min : 101324.91 101316.08 101307.25
fluid  Prg max/avg/min : 101325 101324.27 101320.46
fluid  U   max/avg/min : 0.070503007 0.023420291 0
fluid  K average:  0.028175314
fluid  nu average: 1.7624452e-05

Solving for solid region cilcen
DICPCG:  Solving for h, Initial residual = 0.97880133, Final residual = 1.9491078e-16, No Iterations 1
Tcilcen  max/avg/min : 396.36038 396.33834 395.47039
ExecutionTime = 1.96 s  ClockTime = 2 s

Time = 29


Solving for fluid region fluid
DILUPBiCG:  Solving for Ux, Initial residual = 0.030934227, Final residual = 6.2915332e-05, No Iterations 1
DILUPBiCG:  Solving for Uy, Initial residual = 0.031407261, Final residual = 5.5606149e-05, No Iterations 1
DILUPBiCG:  Solving for Uz, Initial residual = 0.075379191, Final residual = 0.00012331282, No Iterations 1
DILUPBiCG:  Solving for h, Initial residual = 0.011193027, Final residual = 7.114629e-05, No Iterations 2
GAMG:  Solving for p_rgh, Initial residual = 0.016905666, Final residual = 0.00015146299, No Iterations 3
time step continuity errors : sum local = 0.00082016541, global = 9.9439124e-06, cumulative = 0.002315571
Min/max rho:0.89085315 1.2016463
ExecutionTime = 2.02 s  ClockTime = 2 s
fluid  Inflow      : 3.9063811e-05 [kg/s]
fluid  Outflow     : 3.9072104e-05 [kg/s]
fluid  EnergyInflow  : 11.541879 [W]
fluid  EnergyOutflow : 11.561832 [W]
fluid  rho max/avg/min : 1.2016458 1.1103816 0.89658193
fluid  T   max/avg/min : 393.56885 320.43338 293.69675
fluid  P   max/avg/min : 101324.91 101316.08 101307.25
fluid  Prg max/avg/min : 101325 101324.25 101320.41
fluid  U   max/avg/min : 0.075843859 0.025845602 0
fluid  K average:  0.028228793
fluid  nu average: 1.7707304e-05

Solving for solid region cilcen
DICPCG:  Solving for h, Initial residual = 0.97653302, Final residual = 8.6410676e-17, No Iterations 1
Tcilcen  max/avg/min : 398.01351 397.98922 397.04629
ExecutionTime = 2.02 s  ClockTime = 2 s

Time = 30


Solving for fluid region fluid
DILUPBiCG:  Solving for Ux, Initial residual = 0.031767676, Final residual = 5.8947262e-05, No Iterations 1
DILUPBiCG:  Solving for Uy, Initial residual = 0.031963639, Final residual = 5.1324631e-05, No Iterations 1
DILUPBiCG:  Solving for Uz, Initial residual = 0.066302422, Final residual = 0.0001058494, No Iterations 1
DILUPBiCG:  Solving for h, Initial residual = 0.010736883, Final residual = 7.2280242e-05, No Iterations 2
Radiation solver iter: 0
GAMG:  Solving for ILambda_0_0, Initial residual = 0.99917198, Final residual = 3.6015299e-16, No Iterations 1
GAMG:  Solving for ILambda_1_0, Initial residual = 0.99917198, Final residual = 4.2226402e-15, No Iterations 1
GAMG:  Solving for ILambda_2_0, Initial residual = 0.93962991, Final residual = 1.4042078e-12, No Iterations 1
GAMG:  Solving for ILambda_3_0, Initial residual = 0.93962991, Final residual = 3.3000546e-13, No Iterations 1
Radiation solver iter: 1
GAMG:  Solving for ILambda_0_0, Initial residual = 6.518474e-14, Final residual = 6.518474e-14, No Iterations 0
GAMG:  Solving for ILambda_1_0, Initial residual = 7.6426329e-13, Final residual = 7.6426329e-13, No Iterations 0
GAMG:  Solving for ILambda_2_0, Initial residual = 7.3569247e-13, Final residual = 7.3569247e-13, No Iterations 0
GAMG:  Solving for ILambda_3_0, Initial residual = 1.7289644e-13, Final residual = 1.7289644e-13, No Iterations 0
GAMG:  Solving for p_rgh, Initial residual = 0.017719148, Final residual = 6.6996272e-05, No Iterations 3
time step continuity errors : sum local = 0.00035966816, global = 2.0259853e-05, cumulative = 0.0023358309
Min/max rho:0.88715087 1.2016463
ExecutionTime = 2.12 s  ClockTime = 2 s
fluid  Inflow      : 4.2379933e-05 [kg/s]
fluid  Outflow     : 4.2396829e-05 [kg/s]
fluid  EnergyInflow  : 12.521668 [W]
fluid  EnergyOutflow : 12.547324 [W]
fluid  rho max/avg/min : 1.2016458 1.1078576 0.89282426
fluid  T   max/avg/min : 395.22539 321.25426 293.69625
fluid  P   max/avg/min : 101324.91 101316.08 101307.24
fluid  Prg max/avg/min : 101325 101324.23 101320.35
fluid  U   max/avg/min : 0.082967469 0.028339567 0
fluid  K average:  0.028281919
fluid  nu average: 1.7789945e-05

Solving for solid region cilcen
DICPCG:  Solving for h, Initial residual = 0.96833118, Final residual = 1.2246278e-16, No Iterations 1
Tcilcen  max/avg/min : 399.35118 399.32483 398.31541
ExecutionTime = 2.12 s  ClockTime = 2 s

Time = 31


Solving for fluid region fluid
DILUPBiCG:  Solving for Ux, Initial residual = 0.032458635, Final residual = 6.0789556e-05, No Iterations 1
DILUPBiCG:  Solving for Uy, Initial residual = 0.03240859, Final residual = 5.3296366e-05, No Iterations 1
DILUPBiCG:  Solving for Uz, Initial residual = 0.063181331, Final residual = 0.00010026916, No Iterations 1
DILUPBiCG:  Solving for h, Initial residual = 0.0095387663, Final residual = 6.990101e-05, No Iterations 2
GAMG:  Solving for p_rgh, Initial residual = 0.017670282, Final residual = 2.7102562e-05, No Iterations 4
time step continuity errors : sum local = 0.00014649062, global = -3.0940643e-05, cumulative = 0.0023048902
Min/max rho:0.88417687 1.2016463
ExecutionTime = 2.2 s  ClockTime = 2 s
fluid  Inflow      : 4.5525905e-05 [kg/s]
fluid  Outflow     : 4.55001e-05 [kg/s]
fluid  EnergyInflow  : 13.451184 [W]
fluid  EnergyOutflow : 13.467741 [W]
fluid  rho max/avg/min : 1.2016458 1.1054016 0.88965129
fluid  T   max/avg/min : 396.63473 322.05594 293.69576
fluid  P   max/avg/min : 101324.91 101316.08 101307.24
fluid  Prg max/avg/min : 101325 101324.21 101320.31
fluid  U   max/avg/min : 0.090463253 0.030792223 0
fluid  K average:  0.028333755
fluid  nu average: 1.7870747e-05

Solving for solid region cilcen
DICPCG:  Solving for h, Initial residual = 0.96721541, Final residual = 9.3073714e-17, No Iterations 1
Tcilcen  max/avg/min : 400.75149 400.72266 399.64109
ExecutionTime = 2.2 s  ClockTime = 2 s

Time = 32


Solving for fluid region fluid
DILUPBiCG:  Solving for Ux, Initial residual = 0.024479656, Final residual = 5.0316395e-05, No Iterations 1
DILUPBiCG:  Solving for Uy, Initial residual = 0.024928983, Final residual = 4.4832775e-05, No Iterations 1
DILUPBiCG:  Solving for Uz, Initial residual = 0.055576844, Final residual = 8.6454802e-05, No Iterations 1
DILUPBiCG:  Solving for h, Initial residual = 0.009175222, Final residual = 7.0035168e-05, No Iterations 2
GAMG:  Solving for p_rgh, Initial residual = 0.018370229, Final residual = 0.00015120673, No Iterations 3
time step continuity errors : sum local = 0.00081964698, global = -0.0001357775, cumulative = 0.0021691127
Min/max rho:0.88108561 1.2016463
ExecutionTime = 2.27 s  ClockTime = 2 s
fluid  Inflow      : 4.8394954e-05 [kg/s]
fluid  Outflow     : 4.8281715e-05 [kg/s]
fluid  EnergyInflow  : 14.298879 [W]
fluid  EnergyOutflow : 14.293384 [W]
fluid  rho max/avg/min : 1.2016458 1.1029924 0.88647685
fluid  T   max/avg/min : 398.05518 322.84743 293.69527
fluid  P   max/avg/min : 101324.91 101316.08 101307.25
fluid  Prg max/avg/min : 101325 101324.2 101320.27
fluid  U   max/avg/min : 0.09788095 0.033165723 0
fluid  K average:  0.028384849
fluid  nu average: 1.7950688e-05

Solving for solid region cilcen
DICPCG:  Solving for h, Initial residual = 0.96470944, Final residual = 1.3103346e-16, No Iterations 1
Tcilcen  max/avg/min : 402.16228 402.13078 400.97373
ExecutionTime = 2.27 s  ClockTime = 2 s

Time = 33


Solving for fluid region fluid
DILUPBiCG:  Solving for Ux, Initial residual = 0.024069449, Final residual = 4.5194026e-05, No Iterations 1
DILUPBiCG:  Solving for Uy, Initial residual = 0.02436374, Final residual = 3.9922956e-05, No Iterations 1
DILUPBiCG:  Solving for Uz, Initial residual = 0.04961784, Final residual = 7.7912209e-05, No Iterations 1
DILUPBiCG:  Solving for h, Initial residual = 0.0088462073, Final residual = 7.3288407e-05, No Iterations 2
GAMG:  Solving for p_rgh, Initial residual = 0.018538881, Final residual = 5.9563452e-05, No Iterations 3
time step continuity errors : sum local = 0.00032327557, global = 3.463637e-06, cumulative = 0.0021725763
Min/max rho:0.87799306 1.2016463
ExecutionTime = 2.34 s  ClockTime = 2 s
fluid  Inflow      : 5.0778328e-05 [kg/s]
fluid  Outflow     : 5.0781217e-05 [kg/s]
fluid  EnergyInflow  : 15.003076 [W]
fluid  EnergyOutflow : 15.035901 [W]
fluid  rho max/avg/min : 1.2016458 1.1006235 0.88331874
fluid  T   max/avg/min : 399.47847 323.6306 293.69479
fluid  P   max/avg/min : 101324.91 101316.1 101307.27
fluid  Prg max/avg/min : 101325 101324.19 101320.25
fluid  U   max/avg/min : 0.10521352 0.035375905 0
fluid  K average:  0.028435322
fluid  nu average: 1.8029954e-05

Solving for solid region cilcen
DICPCG:  Solving for h, Initial residual = 0.96183218, Final residual = 1.1015366e-16, No Iterations 1
Tcilcen  max/avg/min : 403.57589 403.54154 402.30639
ExecutionTime = 2.34 s  ClockTime = 2 s

Time = 34


Solving for fluid region fluid
DILUPBiCG:  Solving for Ux, Initial residual = 0.02961774, Final residual = 5.393694e-05, No Iterations 1
DILUPBiCG:  Solving for Uy, Initial residual = 0.029430641, Final residual = 4.6718495e-05, No Iterations 1
DILUPBiCG:  Solving for Uz, Initial residual = 0.041587249, Final residual = 6.4565168e-05, No Iterations 1
DILUPBiCG:  Solving for h, Initial residual = 0.0085411889, Final residual = 7.1309087e-05, No Iterations 2
GAMG:  Solving for p_rgh, Initial residual = 0.019112281, Final residual = 0.00018201973, No Iterations 3
time step continuity errors : sum local = 0.0009978999, global = -4.2224521e-06, cumulative = 0.0021683539
Min/max rho:0.87491617 1.2016463
ExecutionTime = 2.42 s  ClockTime = 2 s
fluid  Inflow      : 5.2925792e-05 [kg/s]
fluid  Outflow     : 5.292227e-05 [kg/s]
fluid  EnergyInflow  : 15.637571 [W]
fluid  EnergyOutflow : 15.672703 [W]
fluid  rho max/avg/min : 1.2016458 1.0982996 0.88018044
fluid  T   max/avg/min : 400.90302 324.40461 293.69432
fluid  P   max/avg/min : 101324.91 101316.1 101307.28
fluid  Prg max/avg/min : 101325 101324.18 101320.22
fluid  U   max/avg/min : 0.112397 0.037504883 0
fluid  K average:  0.028485112
fluid  nu average: 1.8108481e-05

Solving for solid region cilcen
DICPCG:  Solving for h, Initial residual = 0.95836884, Final residual = 2.1777568e-16, No Iterations 1
Tcilcen  max/avg/min : 404.99081 404.95341 403.63787
ExecutionTime = 2.42 s  ClockTime = 2 s

Time = 35


Solving for fluid region fluid
DILUPBiCG:  Solving for Ux, Initial residual = 0.023739494, Final residual = 4.3684966e-05, No Iterations 1
DILUPBiCG:  Solving for Uy, Initial residual = 0.023815389, Final residual = 3.7603916e-05, No Iterations 1
DILUPBiCG:  Solving for Uz, Initial residual = 0.038220563, Final residual = 6.0169371e-05, No Iterations 1
DILUPBiCG:  Solving for h, Initial residual = 0.0082699705, Final residual = 7.6963657e-05, No Iterations 2
GAMG:  Solving for p_rgh, Initial residual = 0.01901032, Final residual = 8.0593196e-05, No Iterations 3
time step continuity errors : sum local = 0.000446296, global = -9.8863956e-05, cumulative = 0.0020694899
Min/max rho:0.87185766 1.2016463
ExecutionTime = 2.51 s  ClockTime = 2 s
fluid  Inflow      : 5.4901656e-05 [kg/s]
fluid  Outflow     : 5.4819203e-05 [kg/s]
fluid  EnergyInflow  : 16.221364 [W]
fluid  EnergyOutflow : 16.237518 [W]
fluid  rho max/avg/min : 1.2016458 1.0960135 0.87707135
fluid  T   max/avg/min : 402.32428 325.17098 293.69388
fluid  P   max/avg/min : 101324.91 101316.11 101307.3
fluid  Prg max/avg/min : 101325 101324.17 101320.19
fluid  U   max/avg/min : 0.11944388 0.039537214 0
fluid  K average:  0.028534326
fluid  nu average: 1.8186403e-05

Solving for solid region cilcen
DICPCG:  Solving for h, Initial residual = 0.95371577, Final residual = 1.2547585e-16, No Iterations 1
Tcilcen  max/avg/min : 406.4025 406.36184 404.96417
ExecutionTime = 2.51 s  ClockTime = 2 s

Time = 36


Solving for fluid region fluid
DILUPBiCG:  Solving for Ux, Initial residual = 0.027015618, Final residual = 4.8711837e-05, No Iterations 1
DILUPBiCG:  Solving for Uy, Initial residual = 0.026787925, Final residual = 4.1804582e-05, No Iterations 1
DILUPBiCG:  Solving for Uz, Initial residual = 0.033497042, Final residual = 5.1751484e-05, No Iterations 1
DILUPBiCG:  Solving for h, Initial residual = 0.0080104705, Final residual = 7.2694147e-05, No Iterations 2
GAMG:  Solving for p_rgh, Initial residual = 0.019293973, Final residual = 6.6640202e-05, No Iterations 3
time step continuity errors : sum local = 0.0003753204, global = -0.0001719477, cumulative = 0.0018975422
Min/max rho:0.86882744 1.2016463
ExecutionTime = 2.57 s  ClockTime = 3 s
fluid  Inflow      : 5.6582096e-05 [kg/s]
fluid  Outflow     : 5.6438691e-05 [kg/s]
fluid  EnergyInflow  : 16.71787 [W]
fluid  EnergyOutflow : 16.720504 [W]
fluid  rho max/avg/min : 1.2016458 1.0937715 0.87398735
fluid  T   max/avg/min : 403.74405 325.92845 293.69345
fluid  P   max/avg/min : 101324.91 101316.11 101307.31
fluid  Prg max/avg/min : 101325 101324.16 101320.16
fluid  U   max/avg/min : 0.12647204 0.041479389 0
fluid  K average:  0.028582871
fluid  nu average: 1.8263614e-05

Solving for solid region cilcen
DICPCG:  Solving for h, Initial residual = 0.9489265, Final residual = 1.195422e-16, No Iterations 1
Tcilcen  max/avg/min : 407.81279 407.76866 406.28725
ExecutionTime = 2.57 s  ClockTime = 3 s

Time = 37


Solving for fluid region fluid
DILUPBiCG:  Solving for Ux, Initial residual = 0.015878745, Final residual = 3.236742e-05, No Iterations 1
DILUPBiCG:  Solving for Uy, Initial residual = 0.016303652, Final residual = 2.8882215e-05, No Iterations 1
DILUPBiCG:  Solving for Uz, Initial residual = 0.030185058, Final residual = 4.7464524e-05, No Iterations 1
DILUPBiCG:  Solving for h, Initial residual = 0.0077747474, Final residual = 7.2282692e-05, No Iterations 2
GAMG:  Solving for p_rgh, Initial residual = 0.018918759, Final residual = 7.5706392e-05, No Iterations 3
time step continuity errors : sum local = 0.00043458196, global = -0.0001149587, cumulative = 0.0017825835
Min/max rho:0.86582119 1.2016463
ExecutionTime = 2.64 s  ClockTime = 3 s
fluid  Inflow      : 5.7951388e-05 [kg/s]
fluid  Outflow     : 5.7855513e-05 [kg/s]
fluid  EnergyInflow  : 17.122445 [W]
fluid  EnergyOutflow : 17.143687 [W]
fluid  rho max/avg/min : 1.2016458 1.0915712 0.87093295
fluid  T   max/avg/min : 405.1601 326.67743 293.69304
fluid  P   max/avg/min : 101324.91 101316.12 101307.32
fluid  Prg max/avg/min : 101325 101324.15 101320.13
fluid  U   max/avg/min : 0.13332791 0.043341331 0
fluid  K average:  0.028630781
fluid  nu average: 1.8340146e-05

Solving for solid region cilcen
DICPCG:  Solving for h, Initial residual = 0.94381086, Final residual = 1.0048892e-16, No Iterations 1
Tcilcen  max/avg/min : 409.21943 409.1716 407.60525
ExecutionTime = 2.64 s  ClockTime = 3 s

Time = 38


Solving for fluid region fluid
DILUPBiCG:  Solving for Ux, Initial residual = 0.014902849, Final residual = 2.8499726e-05, No Iterations 1
DILUPBiCG:  Solving for Uy, Initial residual = 0.01531278, Final residual = 2.5348228e-05, No Iterations 1
DILUPBiCG:  Solving for Uz, Initial residual = 0.026954382, Final residual = 4.1198999e-05, No Iterations 1
DILUPBiCG:  Solving for h, Initial residual = 0.0075573729, Final residual = 7.0201875e-05, No Iterations 2
GAMG:  Solving for p_rgh, Initial residual = 0.019051699, Final residual = 0.00017259847, No Iterations 3
time step continuity errors : sum local = 0.0010079435, global = 2.0731833e-05, cumulative = 0.0018033154
Min/max rho:0.86284339 1.2016463
ExecutionTime = 2.72 s  ClockTime = 3 s
fluid  Inflow      : 5.9129592e-05 [kg/s]
fluid  Outflow     : 5.9146882e-05 [kg/s]
fluid  EnergyInflow  : 17.470559 [W]
fluid  EnergyOutflow : 17.529914 [W]
fluid  rho max/avg/min : 1.2016458 1.0894114 0.86790807
fluid  T   max/avg/min : 406.5723 327.41822 293.69265
fluid  P   max/avg/min : 101324.91 101316.12 101307.33
fluid  Prg max/avg/min : 101324.99 101324.13 101320.09
fluid  U   max/avg/min : 0.140038 0.04517073 0
fluid  K average:  0.028678075
fluid  nu average: 1.8416026e-05

Solving for solid region cilcen
DICPCG:  Solving for h, Initial residual = 0.93846669, Final residual = 1.0507332e-16, No Iterations 1
Tcilcen  max/avg/min : 410.6223 410.57053 408.9183
ExecutionTime = 2.72 s  ClockTime = 3 s

Time = 39


Solving for fluid region fluid
DILUPBiCG:  Solving for Ux, Initial residual = 0.014327778, Final residual = 4.881321e-05, No Iterations 1
DILUPBiCG:  Solving for Uy, Initial residual = 0.01457334, Final residual = 2.86685e-05, No Iterations 1
DILUPBiCG:  Solving for Uz, Initial residual = 0.025755494, Final residual = 3.9721348e-05, No Iterations 1
DILUPBiCG:  Solving for h, Initial residual = 0.0073577211, Final residual = 7.0530464e-05, No Iterations 2
GAMG:  Solving for p_rgh, Initial residual = 0.018441782, Final residual = 0.00014834322, No Iterations 3
time step continuity errors : sum local = 0.00088211639, global = -2.4510928e-05, cumulative = 0.0017788044
Min/max rho:0.85989385 1.2016463
ExecutionTime = 2.8 s  ClockTime = 3 s
fluid  Inflow      : 6.0446515e-05 [kg/s]
fluid  Outflow     : 6.0426073e-05 [kg/s]
fluid  EnergyInflow  : 17.85966 [W]
fluid  EnergyOutflow : 17.912761 [W]
fluid  rho max/avg/min : 1.2016458 1.087289 0.86491536
fluid  T   max/avg/min : 407.97918 328.15134 293.69229
fluid  P   max/avg/min : 101324.91 101316.13 101307.33
fluid  Prg max/avg/min : 101325 101324.12 101320.06
fluid  U   max/avg/min : 0.14670986 0.046991295 0
fluid  K average:  0.028724793
fluid  nu average: 1.8491297e-05

Solving for solid region cilcen
DICPCG:  Solving for h, Initial residual = 0.93281791, Final residual = 1.259373e-16, No Iterations 1
Tcilcen  max/avg/min : 412.01995 411.96398 410.22524
ExecutionTime = 2.8 s  ClockTime = 3 s

Time = 40


Solving for fluid region fluid
DILUPBiCG:  Solving for Ux, Initial residual = 0.015203924, Final residual = 2.5670209e-05, No Iterations 1
DILUPBiCG:  Solving for Uy, Initial residual = 0.015375978, Final residual = 2.2374666e-05, No Iterations 1
DILUPBiCG:  Solving for Uz, Initial residual = 0.024636236, Final residual = 3.7213122e-05, No Iterations 1
DILUPBiCG:  Solving for h, Initial residual = 0.0071619769, Final residual = 6.4204848e-05, No Iterations 2
Radiation solver iter: 0
GAMG:  Solving for ILambda_0_0, Initial residual = 0.99706345, Final residual = 1.9907865e-32, No Iterations 1
GAMG:  Solving for ILambda_1_0, Initial residual = 0.99706345, Final residual = 2.1725627e-32, No Iterations 1
GAMG:  Solving for ILambda_2_0, Initial residual = 0.5264896, Final residual = 6.9855305e-13, No Iterations 1
GAMG:  Solving for ILambda_3_0, Initial residual = 0.5264896, Final residual = 1.6047069e-13, No Iterations 1
Radiation solver iter: 1
GAMG:  Solving for ILambda_0_0, Initial residual = 1.3714104e-30, Final residual = 1.3714104e-30, No Iterations 0
GAMG:  Solving for ILambda_1_0, Initial residual = 1.4966322e-30, Final residual = 1.4966322e-30, No Iterations 0
GAMG:  Solving for ILambda_2_0, Initial residual = 3.8185361e-12, Final residual = 3.8185361e-12, No Iterations 0
GAMG:  Solving for ILambda_3_0, Initial residual = 8.7718908e-13, Final residual = 8.7718908e-13, No Iterations 0
GAMG:  Solving for p_rgh, Initial residual = 0.018189751, Final residual = 4.3092259e-05, No Iterations 3
time step continuity errors : sum local = 0.00026170777, global = 4.7090054e-05, cumulative = 0.0018258945
Min/max rho:0.85697531 1.2016463
ExecutionTime = 2.91 s  ClockTime = 3 s
fluid  Inflow      : 6.1650084e-05 [kg/s]
fluid  Outflow     : 6.1689358e-05 [kg/s]
fluid  EnergyInflow  : 18.21527 [W]
fluid  EnergyOutflow : 18.291196 [W]
fluid  rho max/avg/min : 1.2016458 1.0852074 0.86194963
fluid  T   max/avg/min : 409.38302 328.87618 293.69194
fluid  P   max/avg/min : 101324.91 101316.12 101307.32
fluid  Prg max/avg/min : 101324.99 101324.09 101320
fluid  U   max/avg/min : 0.15335339 0.04889263 0
fluid  K average:  0.028770889
fluid  nu average: 1.8565908e-05

Solving for solid region cilcen
DICPCG:  Solving for h, Initial residual = 0.90097778, Final residual = 1.0814015e-16, No Iterations 1
Tcilcen  max/avg/min : 413.13332 413.07377 411.26447
ExecutionTime = 2.91 s  ClockTime = 3 s

Time = 41


Solving for fluid region fluid
DILUPBiCG:  Solving for Ux, Initial residual = 0.017429431, Final residual = 4.1177388e-05, No Iterations 1
DILUPBiCG:  Solving for Uy, Initial residual = 0.017390457, Final residual = 2.7899659e-05, No Iterations 1
DILUPBiCG:  Solving for Uz, Initial residual = 0.026525683, Final residual = 4.0827785e-05, No Iterations 1
DILUPBiCG:  Solving for h, Initial residual = 0.0064252124, Final residual = 1.0061279e-05, No Iterations 3
GAMG:  Solving for p_rgh, Initial residual = 0.01803561, Final residual = 0.00012002396, No Iterations 3
time step continuity errors : sum local = 0.00075331136, global = -6.8808826e-05, cumulative = 0.0017570857
Min/max rho:0.85466441 1.2016463
ExecutionTime = 2.99 s  ClockTime = 3 s
fluid  Inflow      : 6.2930701e-05 [kg/s]
fluid  Outflow     : 6.2873314e-05 [kg/s]
fluid  EnergyInflow  : 18.593643 [W]
fluid  EnergyOutflow : 18.646307 [W]
fluid  rho max/avg/min : 1.2016458 1.0832374 0.85946734
fluid  T   max/avg/min : 410.56542 329.56708 293.69161
fluid  P   max/avg/min : 101324.91 101316.12 101307.33
fluid  Prg max/avg/min : 101324.99 101324.08 101319.98
fluid  U   max/avg/min : 0.15993941 0.050790475 0
fluid  K average:  0.028814749
fluid  nu average: 1.8637183e-05

Solving for solid region cilcen
DICPCG:  Solving for h, Initial residual = 0.90025927, Final residual = 1.53248e-16, No Iterations 1
Tcilcen  max/avg/min : 414.30902 414.24538 412.36065
ExecutionTime = 2.99 s  ClockTime = 3 s

Time = 42


Solving for fluid region fluid
DILUPBiCG:  Solving for Ux, Initial residual = 0.015127193, Final residual = 4.7384683e-05, No Iterations 1
DILUPBiCG:  Solving for Uy, Initial residual = 0.014970273, Final residual = 5.9340152e-05, No Iterations 1
DILUPBiCG:  Solving for Uz, Initial residual = 0.024795789, Final residual = 3.7170853e-05, No Iterations 1
DILUPBiCG:  Solving for h, Initial residual = 0.0062662586, Final residual = 1.0962765e-05, No Iterations 3
GAMG:  Solving for p_rgh, Initial residual = 0.017266396, Final residual = 0.00011696491, No Iterations 3
time step continuity errors : sum local = 0.00074258958, global = 7.4699504e-05, cumulative = 0.0018317852
Min/max rho:0.85223782 1.2016463
ExecutionTime = 3.06 s  ClockTime = 3 s
fluid  Inflow      : 6.403176e-05 [kg/s]
fluid  Outflow     : 6.409406e-05 [kg/s]
fluid  EnergyInflow  : 18.918965 [W]
fluid  EnergyOutflow : 19.012418 [W]
fluid  rho max/avg/min : 1.2016458 1.0813122 0.85697215
fluid  T   max/avg/min : 411.76095 330.24648 293.6913
fluid  P   max/avg/min : 101324.91 101316.12 101307.33
fluid  Prg max/avg/min : 101324.99 101324.07 101319.94
fluid  U   max/avg/min : 0.16653755 0.05267856 0
fluid  K average:  0.028857811
fluid  nu average: 1.8707408e-05

Solving for solid region cilcen
DICPCG:  Solving for h, Initial residual = 0.89389612, Final residual = 2.4021773e-16, No Iterations 1
Tcilcen  max/avg/min : 415.49752 415.42943 413.46772
ExecutionTime = 3.06 s  ClockTime = 3 s

Time = 43


Solving for fluid region fluid
DILUPBiCG:  Solving for Ux, Initial residual = 0.013048891, Final residual = 2.5736635e-05, No Iterations 1
DILUPBiCG:  Solving for Uy, Initial residual = 0.013037755, Final residual = 2.4540468e-05, No Iterations 1
DILUPBiCG:  Solving for Uz, Initial residual = 0.024222598, Final residual = 3.7157139e-05, No Iterations 1
DILUPBiCG:  Solving for h, Initial residual = 0.0061118889, Final residual = 1.0867105e-05, No Iterations 3
GAMG:  Solving for p_rgh, Initial residual = 0.016585695, Final residual = 3.7213795e-05, No Iterations 3
time step continuity errors : sum local = 0.0002410919, global = 0.00013201235, cumulative = 0.0019637975
Min/max rho:0.84979876 1.2016463
ExecutionTime = 3.11 s  ClockTime = 3 s
fluid  Inflow      : 6.5231381e-05 [kg/s]
fluid  Outflow     : 6.5341479e-05 [kg/s]
fluid  EnergyInflow  : 19.273407 [W]
fluid  EnergyOutflow : 19.386733 [W]
fluid  rho max/avg/min : 1.2016458 1.0794318 0.85447786
fluid  T   max/avg/min : 412.96302 330.91479 293.69101
fluid  P   max/avg/min : 101324.91 101316.12 101307.32
fluid  Prg max/avg/min : 101324.99 101324.05 101319.9
fluid  U   max/avg/min : 0.17308307 0.054611725 0
fluid  K average:  0.028900094
fluid  nu average: 1.8776645e-05

Solving for solid region cilcen
DICPCG:  Solving for h, Initial residual = 0.88658459, Final residual = 2.2871976e-16, No Iterations 1
Tcilcen  max/avg/min : 416.69252 416.61961 414.58007
ExecutionTime = 3.12 s  ClockTime = 3 s

Time = 44


Solving for fluid region fluid
DILUPBiCG:  Solving for Ux, Initial residual = 0.015966553, Final residual = 5.0798902e-07, No Iterations 2
DILUPBiCG:  Solving for Uy, Initial residual = 0.015856215, Final residual = 9.5012186e-07, No Iterations 2
DILUPBiCG:  Solving for Uz, Initial residual = 0.024834174, Final residual = 3.7488214e-05, No Iterations 1
DILUPBiCG:  Solving for h, Initial residual = 0.0059552405, Final residual = 1.163038e-05, No Iterations 3
GAMG:  Solving for p_rgh, Initial residual = 0.016534104, Final residual = 4.9234663e-05, No Iterations 3
time step continuity errors : sum local = 0.00032829351, global = 0.00010039247, cumulative = 0.00206419
Min/max rho:0.84736025 1.2016463
ExecutionTime = 3.19 s  ClockTime = 3 s
fluid  Inflow      : 6.6423432e-05 [kg/s]
fluid  Outflow     : 6.6507159e-05 [kg/s]
fluid  EnergyInflow  : 19.625613 [W]
fluid  EnergyOutflow : 19.737048 [W]
fluid  rho max/avg/min : 1.2016458 1.0775989 0.85199071
fluid  T   max/avg/min : 414.16863 331.57154 293.69073
fluid  P   max/avg/min : 101324.9 101316.12 101307.32
fluid  Prg max/avg/min : 101324.99 101324.04 101319.87
fluid  U   max/avg/min : 0.17947 0.056549296 0
fluid  K average:  0.02894156
fluid  nu average: 1.8844855e-05

Solving for solid region cilcen
DICPCG:  Solving for h, Initial residual = 0.87868108, Final residual = 2.0683956e-16, No Iterations 1
Tcilcen  max/avg/min : 417.89106 417.81296 415.69518
ExecutionTime = 3.19 s  ClockTime = 3 s

Time = 45


Solving for fluid region fluid
DILUPBiCG:  Solving for Ux, Initial residual = 0.012948938, Final residual = 3.1325643e-05, No Iterations 1
DILUPBiCG:  Solving for Uy, Initial residual = 0.012795768, Final residual = 2.5990999e-05, No Iterations 1
DILUPBiCG:  Solving for Uz, Initial residual = 0.024099963, Final residual = 3.686592e-05, No Iterations 1
DILUPBiCG:  Solving for h, Initial residual = 0.0058095441, Final residual = 1.241597e-05, No Iterations 3
GAMG:  Solving for p_rgh, Initial residual = 0.015860952, Final residual = 7.7930353e-05, No Iterations 3
time step continuity errors : sum local = 0.00052718012, global = -3.3406868e-05, cumulative = 0.0020307831
Min/max rho:0.84492856 1.2016463
ExecutionTime = 3.26 s  ClockTime = 3 s
fluid  Inflow      : 6.7665264e-05 [kg/s]
fluid  Outflow     : 6.7637403e-05 [kg/s]
fluid  EnergyInflow  : 19.992528 [W]
fluid  EnergyOutflow : 20.076926 [W]
fluid  rho max/avg/min : 1.2016458 1.0758078 0.84951466
fluid  T   max/avg/min : 415.37584 332.21818 293.69046
fluid  P   max/avg/min : 101324.91 101316.12 101307.33
fluid  Prg max/avg/min : 101324.99 101324.02 101319.84
fluid  U   max/avg/min : 0.18567192 0.058475808 0
fluid  K average:  0.02898231
fluid  nu average: 1.8912176e-05

Solving for solid region cilcen
DICPCG:  Solving for h, Initial residual = 0.87028157, Final residual = 4.3035779e-16, No Iterations 1
Tcilcen  max/avg/min : 419.09122 419.00754 416.81147
ExecutionTime = 3.26 s  ClockTime = 3 s

Time = 46


Solving for fluid region fluid
DILUPBiCG:  Solving for Ux, Initial residual = 0.013234885, Final residual = 3.2472536e-05, No Iterations 1
DILUPBiCG:  Solving for Uy, Initial residual = 0.013198712, Final residual = 2.7274413e-05, No Iterations 1
DILUPBiCG:  Solving for Uz, Initial residual = 0.023220049, Final residual = 3.4904816e-05, No Iterations 1
DILUPBiCG:  Solving for h, Initial residual = 0.0056699633, Final residual = 1.2526516e-05, No Iterations 3
GAMG:  Solving for p_rgh, Initial residual = 0.015456712, Final residual = 3.1978549e-05, No Iterations 3
time step continuity errors : sum local = 0.00021908853, global = 2.9614873e-05, cumulative = 0.002060398
Min/max rho:0.84250755 1.2016463
ExecutionTime = 3.33 s  ClockTime = 3 s
fluid  Inflow      : 6.8757414e-05 [kg/s]
fluid  Outflow     : 6.8782113e-05 [kg/s]
fluid  EnergyInflow  : 20.315217 [W]
fluid  EnergyOutflow : 20.421281 [W]
fluid  rho max/avg/min : 1.2016458 1.0740581 0.84705274
fluid  T   max/avg/min : 416.58317 332.8548 293.69019
fluid  P   max/avg/min : 101324.9 101316.12 101307.32
fluid  Prg max/avg/min : 101324.99 101324.01 101319.8
fluid  U   max/avg/min : 0.19176528 0.060422623 0
fluid  K average:  0.029022349
fluid  nu average: 1.8978615e-05

Solving for solid region cilcen
DICPCG:  Solving for h, Initial residual = 0.8613784, Final residual = 2.1261388e-16, No Iterations 1
Tcilcen  max/avg/min : 420.29152 420.20185 417.92774
ExecutionTime = 3.33 s  ClockTime = 3 s

Time = 47


Solving for fluid region fluid
DILUPBiCG:  Solving for Ux, Initial residual = 0.014286959, Final residual = 5.8006011e-05, No Iterations 1
DILUPBiCG:  Solving for Uy, Initial residual = 0.014100704, Final residual = 5.0895833e-05, No Iterations 1
DILUPBiCG:  Solving for Uz, Initial residual = 0.023502349, Final residual = 3.599961e-05, No Iterations 1
DILUPBiCG:  Solving for h, Initial residual = 0.0055314836, Final residual = 1.3158645e-05, No Iterations 3
GAMG:  Solving for p_rgh, Initial residual = 0.015254645, Final residual = 6.413117e-05, No Iterations 3
time step continuity errors : sum local = 0.00045116512, global = -3.7847942e-05, cumulative = 0.0020225501
Min/max rho:0.84010004 1.2016463
ExecutionTime = 3.41 s  ClockTime = 3 s
fluid  Inflow      : 6.9884182e-05 [kg/s]
fluid  Outflow     : 6.9852617e-05 [kg/s]
fluid  EnergyInflow  : 20.648134 [W]
fluid  EnergyOutflow : 20.743835 [W]
fluid  rho max/avg/min : 1.2016458 1.0723519 0.84460649
fluid  T   max/avg/min : 417.78977 333.4808 293.68993
fluid  P   max/avg/min : 101324.91 101316.12 101307.33
fluid  Prg max/avg/min : 101324.99 101324 101319.78
fluid  U   max/avg/min : 0.19770535 0.062356494 0
fluid  K average:  0.029061637
fluid  nu average: 1.9044117e-05

Solving for solid region cilcen
DICPCG:  Solving for h, Initial residual = 0.85212104, Final residual = 1.0132785e-16, No Iterations 1
Tcilcen  max/avg/min : 421.49114 421.39505 419.04338
ExecutionTime = 3.41 s  ClockTime = 3 s

Time = 48


Solving for fluid region fluid
DILUPBiCG:  Solving for Ux, Initial residual = 0.013598831, Final residual = 4.0555866e-05, No Iterations 1
DILUPBiCG:  Solving for Uy, Initial residual = 0.013430408, Final residual = 3.5441781e-05, No Iterations 1
DILUPBiCG:  Solving for Uz, Initial residual = 0.022389159, Final residual = 3.3453171e-05, No Iterations 1
DILUPBiCG:  Solving for h, Initial residual = 0.0054013814, Final residual = 1.3520244e-05, No Iterations 3
GAMG:  Solving for p_rgh, Initial residual = 0.014795734, Final residual = 5.4654979e-05, No Iterations 3
time step continuity errors : sum local = 0.00038675272, global = 4.1377756e-05, cumulative = 0.0020639278
Min/max rho:0.83770769 1.2016463
ExecutionTime = 3.48 s  ClockTime = 3 s
fluid  Inflow      : 7.0862656e-05 [kg/s]
fluid  Outflow     : 7.0897165e-05 [kg/s]
fluid  EnergyInflow  : 20.937236 [W]
fluid  EnergyOutflow : 21.058759 [W]
fluid  rho max/avg/min : 1.2016458 1.0706848 0.84217731
fluid  T   max/avg/min : 418.99492 334.09732 293.68967
fluid  P   max/avg/min : 101324.9 101316.12 101307.33
fluid  Prg max/avg/min : 101324.99 101323.98 101319.74
fluid  U   max/avg/min : 0.20366043 0.064279409 0
fluid  K average:  0.029100254
fluid  nu average: 1.9108785e-05

Solving for solid region cilcen
DICPCG:  Solving for h, Initial residual = 0.84253361, Final residual = 2.2876907e-16, No Iterations 1
Tcilcen  max/avg/min : 422.68935 422.58639 420.08981
ExecutionTime = 3.48 s  ClockTime = 3 s

Time = 49


Solving for fluid region fluid
DILUPBiCG:  Solving for Ux, Initial residual = 0.014009369, Final residual = 5.3472476e-05, No Iterations 1
DILUPBiCG:  Solving for Uy, Initial residual = 0.013805425, Final residual = 4.7780855e-05, No Iterations 1
[...]

Time = 1989


Solving for fluid region fluid
DILUPBiCG:  Solving for Ux, Initial residual = 0.0014762725, Final residual = 3.6874633e-08, No Iterations 2
DILUPBiCG:  Solving for Uy, Initial residual = 0.0013217843, Final residual = 1.0216246e-05, No Iterations 1
DILUPBiCG:  Solving for Uz, Initial residual = 0.00021740944, Final residual = 9.6344837e-07, No Iterations 1
DILUPBiCG:  Solving for h, Initial residual = 8.5207177e-07, Final residual = 4.5477676e-08, No Iterations 2
GAMG:  Solving for p_rgh, Initial residual = 0.0013395112, Final residual = 6.379731e-06, No Iterations 4
time step continuity errors : sum local = 6.5799123e-05, global = 1.0212342e-05, cumulative = -0.007901257
Min/max rho:0.74270431 1.2016463
ExecutionTime = 147.26 s  ClockTime = 151 s
fluid  Inflow      : 2.6438919e-05 [kg/s]
fluid  Outflow     : 2.6447436e-05 [kg/s]
fluid  EnergyInflow  : 7.8117012 [W]
fluid  EnergyOutflow : 8.4262259 [W]
fluid  rho max/avg/min : 1.2016458 1.0507371 0.74523866
fluid  T   max/avg/min : 473.48897 345.55185 293.69083
fluid  P   max/avg/min : 101324.91 101316.15 101307.4
fluid  Prg max/avg/min : 101325 101323.81 101318.32
fluid  U   max/avg/min : 1.4677893 0.38425726 0
fluid  K average:  0.029750902
fluid  nu average: 2.0450308e-05

Solving for solid region cilcen
DICPCG:  Solving for h, Initial residual = 9.3639582e-06, Final residual = 1.1843885e-21, No Iterations 1
Tcilcen  max/avg/min : 475.3638 468.11932 432.68358
ExecutionTime = 147.26 s  ClockTime = 151 s

Time = 1990


Solving for fluid region fluid
DILUPBiCG:  Solving for Ux, Initial residual = 0.0016649986, Final residual = 7.6424697e-06, No Iterations 1
DILUPBiCG:  Solving for Uy, Initial residual = 0.0015839201, Final residual = 5.9198815e-06, No Iterations 1
DILUPBiCG:  Solving for Uz, Initial residual = 0.00019067723, Final residual = 8.9835637e-07, No Iterations 1
DILUPBiCG:  Solving for h, Initial residual = 8.5995961e-07, Final residual = 4.4839803e-08, No Iterations 2
Radiation solver iter: 0
GAMG:  Solving for ILambda_0_0, Initial residual = 8.6083326e-05, Final residual = 1.9274194e-15, No Iterations 1
GAMG:  Solving for ILambda_1_0, Initial residual = 8.6083326e-05, Final residual = 8.6964503e-15, No Iterations 1
GAMG:  Solving for ILambda_2_0, Initial residual = 0.041951533, Final residual = 4.0845162e-12, No Iterations 1
GAMG:  Solving for ILambda_3_0, Initial residual = 0.041951533, Final residual = 9.644152e-13, No Iterations 1
Radiation solver iter: 1
GAMG:  Solving for ILambda_0_0, Initial residual = 1.9274604e-15, Final residual = 1.9274604e-15, No Iterations 0
GAMG:  Solving for ILambda_1_0, Initial residual = 8.6966352e-15, Final residual = 8.6966352e-15, No Iterations 0
GAMG:  Solving for ILambda_2_0, Initial residual = 4.1801336e-12, Final residual = 4.1801336e-12, No Iterations 0
GAMG:  Solving for ILambda_3_0, Initial residual = 9.869919e-13, Final residual = 9.869919e-13, No Iterations 0
GAMG:  Solving for p_rgh, Initial residual = 0.0013645039, Final residual = 6.1868256e-06, No Iterations 4
time step continuity errors : sum local = 6.4233606e-05, global = -1.8339512e-06, cumulative = -0.007903091
Min/max rho:0.74270456 1.2016463
ExecutionTime = 147.36 s  ClockTime = 151 s
fluid  Inflow      : 2.645277e-05 [kg/s]
fluid  Outflow     : 2.645124e-05 [kg/s]
fluid  EnergyInflow  : 7.8157936 [W]
fluid  EnergyOutflow : 8.4273483 [W]
fluid  rho max/avg/min : 1.201646 1.0507372 0.74523892
fluid  T   max/avg/min : 473.48874 345.55175 293.69085
fluid  P   max/avg/min : 101324.91 101316.16 101307.41
fluid  Prg max/avg/min : 101325.01 101323.83 101318.33
fluid  U   max/avg/min : 1.467799 0.38423011 0
fluid  K average:  0.029750896
fluid  nu average: 2.0450301e-05

Solving for solid region cilcen
DICPCG:  Solving for h, Initial residual = 7.380653e-06, Final residual = 1.9039021e-21, No Iterations 1
Tcilcen  max/avg/min : 475.36362 468.11925 432.68397
ExecutionTime = 147.36 s  ClockTime = 151 s

Time = 1991


Solving for fluid region fluid
DILUPBiCG:  Solving for Ux, Initial residual = 0.0015874679, Final residual = 3.6886243e-08, No Iterations 2
DILUPBiCG:  Solving for Uy, Initial residual = 0.0014217668, Final residual = 2.366898e-08, No Iterations 2
DILUPBiCG:  Solving for Uz, Initial residual = 0.00020133034, Final residual = 9.4325314e-07, No Iterations 1
DILUPBiCG:  Solving for h, Initial residual = 8.1386893e-07, Final residual = 4.1220961e-08, No Iterations 2
GAMG:  Solving for p_rgh, Initial residual = 0.0014232412, Final residual = 6.5437233e-06, No Iterations 4
time step continuity errors : sum local = 6.7574163e-05, global = -6.2433935e-07, cumulative = -0.0079037153
Min/max rho:0.74270491 1.2016463
ExecutionTime = 147.43 s  ClockTime = 151 s
fluid  Inflow      : 2.6407009e-05 [kg/s]
fluid  Outflow     : 2.6406488e-05 [kg/s]
fluid  EnergyInflow  : 7.802273 [W]
fluid  EnergyOutflow : 8.4141267 [W]
fluid  rho max/avg/min : 1.2016458 1.0507376 0.7452393
fluid  T   max/avg/min : 473.48855 345.55166 293.69084
fluid  P   max/avg/min : 101324.91 101316.15 101307.4
fluid  Prg max/avg/min : 101325 101323.81 101318.32
fluid  U   max/avg/min : 1.4678086 0.38424514 0
fluid  K average:  0.029750891
fluid  nu average: 2.0450289e-05

Solving for solid region cilcen
DICPCG:  Solving for h, Initial residual = 8.1554072e-06, Final residual = 8.0437984e-22, No Iterations 1
Tcilcen  max/avg/min : 475.36342 468.11917 432.6844
ExecutionTime = 147.43 s  ClockTime = 151 s

Time = 1992


Solving for fluid region fluid
DILUPBiCG:  Solving for Ux, Initial residual = 0.001705657, Final residual = 7.7272605e-06, No Iterations 1
DILUPBiCG:  Solving for Uy, Initial residual = 0.0016148476, Final residual = 5.9688931e-06, No Iterations 1
DILUPBiCG:  Solving for Uz, Initial residual = 0.00021915388, Final residual = 1.0080475e-06, No Iterations 1
DILUPBiCG:  Solving for h, Initial residual = 8.3149493e-07, Final residual = 4.9526707e-08, No Iterations 2
GAMG:  Solving for p_rgh, Initial residual = 0.0014713084, Final residual = 6.6634574e-06, No Iterations 4
time step continuity errors : sum local = 6.9198984e-05, global = -2.2927708e-06, cumulative = -0.0079060081
Min/max rho:0.74270515 1.2016463
ExecutionTime = 147.49 s  ClockTime = 151 s
fluid  Inflow      : 2.6383747e-05 [kg/s]
fluid  Outflow     : 2.6381835e-05 [kg/s]
fluid  EnergyInflow  : 7.7953998 [W]
fluid  EnergyOutflow : 8.4068423 [W]
fluid  rho max/avg/min : 1.201646 1.0507377 0.74523954
fluid  T   max/avg/min : 473.48835 345.55158 293.69087
fluid  P   max/avg/min : 101324.91 101316.17 101307.41
fluid  Prg max/avg/min : 101325.01 101323.83 101318.33
fluid  U   max/avg/min : 1.467818 0.38420408 0
fluid  K average:  0.029750885
fluid  nu average: 2.0450281e-05

Solving for solid region cilcen
DICPCG:  Solving for h, Initial residual = 8.3211749e-06, Final residual = 8.5248074e-22, No Iterations 1
Tcilcen  max/avg/min : 475.36323 468.1191 432.68487
ExecutionTime = 147.49 s  ClockTime = 151 s

Time = 1993


Solving for fluid region fluid
DILUPBiCG:  Solving for Ux, Initial residual = 0.0016558493, Final residual = 3.861113e-08, No Iterations 2
DILUPBiCG:  Solving for Uy, Initial residual = 0.001474625, Final residual = 2.3986979e-08, No Iterations 2
DILUPBiCG:  Solving for Uz, Initial residual = 0.00020230226, Final residual = 9.6949637e-07, No Iterations 1
DILUPBiCG:  Solving for h, Initial residual = 8.2587244e-07, Final residual = 4.2792058e-08, No Iterations 2
GAMG:  Solving for p_rgh, Initial residual = 0.0015433983, Final residual = 6.736956e-06, No Iterations 4
time step continuity errors : sum local = 6.9645186e-05, global = 6.1490561e-06, cumulative = -0.007899859
Min/max rho:0.74270554 1.2016463
ExecutionTime = 147.57 s  ClockTime = 151 s
fluid  Inflow      : 2.6364979e-05 [kg/s]
fluid  Outflow     : 2.6370107e-05 [kg/s]
fluid  EnergyInflow  : 7.7898546 [W]
fluid  EnergyOutflow : 8.4033769 [W]
fluid  rho max/avg/min : 1.2016458 1.050738 0.74523995
fluid  T   max/avg/min : 473.48814 345.55149 293.69088
fluid  P   max/avg/min : 101324.91 101316.15 101307.4
fluid  Prg max/avg/min : 101325 101323.81 101318.32
fluid  U   max/avg/min : 1.4678276 0.38423218 -2.8431094e-05
fluid  K average:  0.02975088
fluid  nu average: 2.045027e-05

Solving for solid region cilcen
DICPCG:  Solving for h, Initial residual = 8.7119089e-06, Final residual = 9.9771381e-22, No Iterations 1
Tcilcen  max/avg/min : 475.36302 468.11901 432.68537
ExecutionTime = 147.57 s  ClockTime = 151 s

Time = 1994


Solving for fluid region fluid
DILUPBiCG:  Solving for Ux, Initial residual = 0.0016512418, Final residual = 7.4347879e-06, No Iterations 1
DILUPBiCG:  Solving for Uy, Initial residual = 0.0015585153, Final residual = 5.7312098e-06, No Iterations 1
DILUPBiCG:  Solving for Uz, Initial residual = 0.00021249473, Final residual = 9.9932786e-07, No Iterations 1
DILUPBiCG:  Solving for h, Initial residual = 8.4194472e-07, Final residual = 4.6119356e-08, No Iterations 2
GAMG:  Solving for p_rgh, Initial residual = 0.0015938703, Final residual = 6.901567e-06, No Iterations 4
time step continuity errors : sum local = 7.1802047e-05, global = -7.2931887e-06, cumulative = -0.0079071522
Min/max rho:0.74270577 1.2016463
ExecutionTime = 147.66 s  ClockTime = 151 s
fluid  Inflow      : 2.6348776e-05 [kg/s]
fluid  Outflow     : 2.6342694e-05 [kg/s]
fluid  EnergyInflow  : 7.7850674 [W]
fluid  EnergyOutflow : 8.3952777 [W]
fluid  rho max/avg/min : 1.201646 1.0507381 0.74524019
fluid  T   max/avg/min : 473.48793 345.5514 293.6909
fluid  P   max/avg/min : 101324.91 101316.17 101307.41
fluid  Prg max/avg/min : 101325.01 101323.83 101318.33
fluid  U   max/avg/min : 1.4678372 0.38418915 -0.00013184123
fluid  K average:  0.029750875
fluid  nu average: 2.0450263e-05

Solving for solid region cilcen
DICPCG:  Solving for h, Initial residual = 8.9231209e-06, Final residual = 9.6377465e-22, No Iterations 1
Tcilcen  max/avg/min : 475.36281 468.11893 432.68592
ExecutionTime = 147.66 s  ClockTime = 151 s

Time = 1995


Solving for fluid region fluid
DILUPBiCG:  Solving for Ux, Initial residual = 0.0019736529, Final residual = 4.5052168e-08, No Iterations 2
DILUPBiCG:  Solving for Uy, Initial residual = 0.0017626512, Final residual = 2.7532728e-08, No Iterations 2
DILUPBiCG:  Solving for Uz, Initial residual = 0.00021389394, Final residual = 1.016103e-06, No Iterations 1
DILUPBiCG:  Solving for h, Initial residual = 8.3222265e-07, Final residual = 4.2320906e-08, No Iterations 2
GAMG:  Solving for p_rgh, Initial residual = 0.0016947582, Final residual = 7.2881363e-06, No Iterations 4
time step continuity errors : sum local = 7.5407298e-05, global = 5.7496422e-06, cumulative = -0.0079014026
Min/max rho:0.74270619 1.2016463
ExecutionTime = 147.75 s  ClockTime = 151 s
fluid  Inflow      : 2.6309017e-05 [kg/s]
fluid  Outflow     : 2.6313812e-05 [kg/s]
fluid  EnergyInflow  : 7.77332 [W]
fluid  EnergyOutflow : 8.3867445 [W]
fluid  rho max/avg/min : 1.2016458 1.0507385 0.74524063
fluid  T   max/avg/min : 473.48771 345.55132 293.6909
fluid  P   max/avg/min : 101324.91 101316.15 101307.4
fluid  Prg max/avg/min : 101325 101323.81 101318.32
fluid  U   max/avg/min : 1.4678464 0.38421283 -0.00039344707
fluid  K average:  0.02975087
fluid  nu average: 2.0450251e-05

Solving for solid region cilcen
DICPCG:  Solving for h, Initial residual = 9.2143922e-06, Final residual = 4.1559669e-21, No Iterations 1
Tcilcen  max/avg/min : 475.3626 468.11885 432.68648
ExecutionTime = 147.75 s  ClockTime = 151 s

Time = 1996


Solving for fluid region fluid
DILUPBiCG:  Solving for Ux, Initial residual = 0.0017039502, Final residual = 7.4371494e-06, No Iterations 1
DILUPBiCG:  Solving for Uy, Initial residual = 0.0015973656, Final residual = 5.6962359e-06, No Iterations 1
DILUPBiCG:  Solving for Uz, Initial residual = 0.00023731268, Final residual = 1.0898204e-06, No Iterations 1
DILUPBiCG:  Solving for h, Initial residual = 8.5372272e-07, Final residual = 5.8975236e-08, No Iterations 2
GAMG:  Solving for p_rgh, Initial residual = 0.0017475299, Final residual = 7.4623512e-06, No Iterations 4
time step continuity errors : sum local = 7.7780877e-05, global = -1.0012124e-05, cumulative = -0.0079114147
Min/max rho:0.74270643 1.2016463
ExecutionTime = 147.82 s  ClockTime = 151 s
fluid  Inflow      : 2.6249953e-05 [kg/s]
fluid  Outflow     : 2.6241603e-05 [kg/s]
fluid  EnergyInflow  : 7.7558689 [W]
fluid  EnergyOutflow : 8.3654087 [W]
fluid  rho max/avg/min : 1.201646 1.0507385 0.74524086
fluid  T   max/avg/min : 473.4875 345.55124 293.69093
fluid  P   max/avg/min : 101324.91 101316.17 101307.42
fluid  Prg max/avg/min : 101325.01 101323.83 101318.33
fluid  U   max/avg/min : 1.4678557 0.38415146 -0.00054192338
fluid  K average:  0.029750865
fluid  nu average: 2.0450245e-05

Solving for solid region cilcen
DICPCG:  Solving for h, Initial residual = 9.0485941e-06, Final residual = 2.0383965e-21, No Iterations 1
Tcilcen  max/avg/min : 475.36239 468.11877 432.68706
ExecutionTime = 147.82 s  ClockTime = 151 s

Time = 1997


Solving for fluid region fluid
DILUPBiCG:  Solving for Ux, Initial residual = 0.0021720333, Final residual = 4.8385164e-08, No Iterations 2
DILUPBiCG:  Solving for Uy, Initial residual = 0.0019427884, Final residual = 1.7629178e-05, No Iterations 1
DILUPBiCG:  Solving for Uz, Initial residual = 0.00024257714, Final residual = 1.1133934e-06, No Iterations 1
DILUPBiCG:  Solving for h, Initial residual = 8.4824203e-07, Final residual = 4.3173188e-08, No Iterations 2
GAMG:  Solving for p_rgh, Initial residual = 0.0018365633, Final residual = 7.892481e-06, No Iterations 4
time step continuity errors : sum local = 8.1848603e-05, global = 1.1287666e-05, cumulative = -0.007900127
Min/max rho:0.74270687 1.2016463
ExecutionTime = 147.88 s  ClockTime = 151 s
fluid  Inflow      : 2.6206097e-05 [kg/s]
fluid  Outflow     : 2.6215511e-05 [kg/s]
fluid  EnergyInflow  : 7.7429112 [W]
fluid  EnergyOutflow : 8.3576991 [W]
fluid  rho max/avg/min : 1.2016457 1.0507389 0.74524132
fluid  T   max/avg/min : 473.48728 345.55116 293.69095
fluid  P   max/avg/min : 101324.91 101316.15 101307.4
fluid  Prg max/avg/min : 101325 101323.81 101318.32
fluid  U   max/avg/min : 1.4678649 0.38417853 -0.0006984097
fluid  K average:  0.02975086
fluid  nu average: 2.0450233e-05

Solving for solid region cilcen
DICPCG:  Solving for h, Initial residual = 9.6660874e-06, Final residual = 3.2280848e-21, No Iterations 1
Tcilcen  max/avg/min : 475.36216 468.11868 432.68769
ExecutionTime = 147.88 s  ClockTime = 151 s

Time = 1998


Solving for fluid region fluid
DILUPBiCG:  Solving for Ux, Initial residual = 0.0016706058, Final residual = 7.1812542e-06, No Iterations 1
DILUPBiCG:  Solving for Uy, Initial residual = 0.0015536629, Final residual = 5.4466027e-06, No Iterations 1
DILUPBiCG:  Solving for Uz, Initial residual = 0.00024703467, Final residual = 1.1304348e-06, No Iterations 1
DILUPBiCG:  Solving for h, Initial residual = 8.6655698e-07, Final residual = 5.270329e-08, No Iterations 2
GAMG:  Solving for p_rgh, Initial residual = 0.0018509467, Final residual = 8.1339771e-06, No Iterations 4
time step continuity errors : sum local = 8.5091199e-05, global = -4.9130783e-06, cumulative = -0.0079050401
Min/max rho:0.7427071 1.2016463
ExecutionTime = 147.95 s  ClockTime = 151 s
fluid  Inflow      : 2.6219481e-05 [kg/s]
fluid  Outflow     : 2.6215383e-05 [kg/s]
fluid  EnergyInflow  : 7.7468654 [W]
fluid  EnergyOutflow : 8.3576611 [W]
fluid  rho max/avg/min : 1.201646 1.0507389 0.74524156
fluid  T   max/avg/min : 473.48706 345.55108 293.69097
fluid  P   max/avg/min : 101324.91 101316.17 101307.41
fluid  Prg max/avg/min : 101325.01 101323.83 101318.33
fluid  U   max/avg/min : 1.4678745 0.3841397 -0.00081497759
fluid  K average:  0.029750855
fluid  nu average: 2.0450227e-05

Solving for solid region cilcen
DICPCG:  Solving for h, Initial residual = 9.6636515e-06, Final residual = 1.2863439e-21, No Iterations 1
Tcilcen  max/avg/min : 475.36194 468.11859 432.68834
ExecutionTime = 147.95 s  ClockTime = 151 s

Time = 1999


Solving for fluid region fluid
DILUPBiCG:  Solving for Ux, Initial residual = 0.0022737066, Final residual = 1.7460844e-05, No Iterations 1
DILUPBiCG:  Solving for Uy, Initial residual = 0.002036755, Final residual = 1.2815617e-05, No Iterations 1
DILUPBiCG:  Solving for Uz, Initial residual = 0.00026164278, Final residual = 1.1694117e-06, No Iterations 1
DILUPBiCG:  Solving for h, Initial residual = 8.513095e-07, Final residual = 4.0994524e-08, No Iterations 2
GAMG:  Solving for p_rgh, Initial residual = 0.0019295913, Final residual = 8.7779635e-06, No Iterations 4
time step continuity errors : sum local = 9.1241654e-05, global = 6.8886233e-08, cumulative = -0.0079049712
Min/max rho:0.74270755 1.2016463
ExecutionTime = 148 s  ClockTime = 151 s
fluid  Inflow      : 2.6152151e-05 [kg/s]
fluid  Outflow     : 2.6152208e-05 [kg/s]
fluid  EnergyInflow  : 7.7269719 [W]
fluid  EnergyOutflow : 8.3389959 [W]
fluid  rho max/avg/min : 1.2016457 1.0507392 0.74524202
fluid  T   max/avg/min : 473.48683 345.551 293.69097
fluid  P   max/avg/min : 101324.91 101316.15 101307.4
fluid  Prg max/avg/min : 101325 101323.81 101318.32
fluid  U   max/avg/min : 1.4678837 0.38415851 -0.00090447439
fluid  K average:  0.02975085
fluid  nu average: 2.0450216e-05

Solving for solid region cilcen
DICPCG:  Solving for h, Initial residual = 1.0097474e-05, Final residual = 2.2200053e-21, No Iterations 1
Tcilcen  max/avg/min : 475.36171 468.1185 432.68902
ExecutionTime = 148 s  ClockTime = 151 s

Time = 2000


Solving for fluid region fluid
DILUPBiCG:  Solving for Ux, Initial residual = 0.0016862746, Final residual = 7.1380888e-06, No Iterations 1
DILUPBiCG:  Solving for Uy, Initial residual = 0.0015622039, Final residual = 5.3658423e-06, No Iterations 1
DILUPBiCG:  Solving for Uz, Initial residual = 0.000294718, Final residual = 1.2917958e-06, No Iterations 1
DILUPBiCG:  Solving for h, Initial residual = 8.7459481e-07, Final residual = 5.4223694e-08, No Iterations 2
Radiation solver iter: 0
GAMG:  Solving for ILambda_0_0, Initial residual = 9.1563506e-05, Final residual = 2.1543859e-15, No Iterations 1
GAMG:  Solving for ILambda_1_0, Initial residual = 9.1563506e-05, Final residual = 9.1922717e-15, No Iterations 1
GAMG:  Solving for ILambda_2_0, Initial residual = 0.054081504, Final residual = 4.4467234e-12, No Iterations 1
GAMG:  Solving for ILambda_3_0, Initial residual = 0.054081504, Final residual = 9.900849e-13, No Iterations 1
Radiation solver iter: 1
GAMG:  Solving for ILambda_0_0, Initial residual = 2.1544434e-15, Final residual = 2.1544434e-15, No Iterations 0
GAMG:  Solving for ILambda_1_0, Initial residual = 9.192517e-15, Final residual = 9.192517e-15, No Iterations 0
GAMG:  Solving for ILambda_2_0, Initial residual = 4.3139409e-12, Final residual = 4.3139409e-12, No Iterations 0
GAMG:  Solving for ILambda_3_0, Initial residual = 9.6052021e-13, Final residual = 9.6052021e-13, No Iterations 0
GAMG:  Solving for p_rgh, Initial residual = 0.0019723762, Final residual = 8.9595943e-06, No Iterations 4
time step continuity errors : sum local = 9.3912724e-05, global = -2.0074828e-06, cumulative = -0.0079069787
Min/max rho:0.74270781 1.2016463
ExecutionTime = 148.09 s  ClockTime = 152 s
fluid  Inflow      : 2.6132209e-05 [kg/s]
fluid  Outflow     : 2.6130534e-05 [kg/s]
fluid  EnergyInflow  : 7.7210798 [W]
fluid  EnergyOutflow : 8.332592 [W]
fluid  rho max/avg/min : 1.201646 1.0507393 0.74524229
fluid  T   max/avg/min : 473.4866 345.55092 293.691
fluid  P   max/avg/min : 101324.91 101316.17 101307.42
fluid  Prg max/avg/min : 101325.01 101323.83 101318.33
fluid  U   max/avg/min : 1.467893 0.38410724 -0.0010091392
fluid  K average:  0.029750845
fluid  nu average: 2.045021e-05

Solving for solid region cilcen
DICPCG:  Solving for h, Initial residual = 7.3536708e-06, Final residual = 8.5066382e-22, No Iterations 1
Tcilcen  max/avg/min : 475.36157 468.11844 432.6896
ExecutionTime = 148.21 s  ClockTime = 152 s

End

