/*---------------------------------------------------------------------------*\
| =========                 |                                                 |
| \\      /  F ield         | OpenFOAM: The Open Source CFD Toolbox           |
|  \\    /   O peration     | Version:  4.0                                   |
|   \\  /    A nd           | Web:      www.OpenFOAM.org                      |
|    \\/     M anipulation  |                                                 |
\*---------------------------------------------------------------------------*/
Build  : 4.0-665f1db4c1f1
Exec   : pupoBuoyantSimpleFoam
Date   : Aug 22 2016
Time   : 00:25:50
Host   : "SC500"
PID    : 10049
Case   : /home/pedro/Documents/ThesisProject/OpenFoam/validation1rod/NoRad
nProcs : 1
sigFpe : Enabling floating point exception trapping (FOAM_SIGFPE).
fileModificationChecking : Monitoring run-time modified files using timeStampMaster
allowSystemOperations : Allowing user-supplied system call operations

// * * * * * * * * * * * * * * * * * * * * * * * * * * * * * * * * * * * * * //
Create time

Create mesh for time = 0


SIMPLE: convergence criteria
    field p_rgh	 tolerance 1e-06
    field Uz	 tolerance 1e-06
    field h	 tolerance 1e-06

Reading thermophysical properties

Selecting thermodynamics package 
{
    type            heRhoThermo;
    mixture         pureMixture;
    transport       sutherland;
    thermo          hConst;
    equationOfState perfectGas;
    specie          specie;
    energy          sensibleEnthalpy;
}


Reading g

Reading hRef
Calculating field g.h

Selecting turbulence model type laminar
No MRF models present

Selecting radiationModel none
 
rho max/avg/min : 1.2016452 1.2015414 1.2014377
T   max/avg/min : 293.7 293.7 293.7
P   max/avg/min : 101324.91 101316.16 101307.41
Prg max/avg/min : 101325 101325 101325
U   max/avg/min : 0 0 0
 
No finite volume options present


Starting Iteration loop

Iteration Number = 1

DILUPBiCG:  Solving for Ux, Initial residual = 0.009764874, Final residual = 1.3546237e-06, No Iterations 2
DILUPBiCG:  Solving for Uy, Initial residual = 4.8698736e-07, Final residual = 7.7482914e-11, No Iterations 2
DILUPBiCG:  Solving for Uz, Initial residual = 1, Final residual = 0.00034325924, No Iterations 2
DILUPBiCG:  Solving for h, Initial residual = 1, Final residual = 0.00045981984, No Iterations 1
GAMG:  Solving for p_rgh, Initial residual = 0.52469927, Final residual = 0.00048428494, No Iterations 3
time step continuity errors : sum local = 6.7457835e-05, global = -2.9849971e-05, cumulative = -2.9849971e-05
ExecutionTime = 0.08 s  ClockTime = 0 s
Inflow      : -2.3858568e-07 [kg/s]
Outflow     : -2.6348053e-07 [kg/s]
EnergyInflow  : -0.070493048 [W]
EnergyOutflow : -0.077848538 [W]
rho max/avg/min : 1.2016452 1.2001092 1.1762176
T   max/avg/min : 299.99741 294.05464 293.7
P   max/avg/min : 101324.91 101316.16 101307.41
Prg max/avg/min : 101325 101324.99 101324.63
U   max/avg/min : 2.3651482e-05 -8.8388041e-05 -0.00086321702
Prg max-min : 0.3698658
 
Iteration Number = 2

DILUPBiCG:  Solving for Ux, Initial residual = 0.3675812, Final residual = 0.00011584873, No Iterations 2
DILUPBiCG:  Solving for Uy, Initial residual = 9.5144369e-05, Final residual = 2.5675961e-08, No Iterations 2
DILUPBiCG:  Solving for Uz, Initial residual = 0.39186228, Final residual = 4.4377037e-05, No Iterations 2
DILUPBiCG:  Solving for h, Initial residual = 0.25341466, Final residual = 6.914844e-05, No Iterations 1
GAMG:  Solving for p_rgh, Initial residual = 0.026437226, Final residual = 7.3638423e-06, No Iterations 5
time step continuity errors : sum local = 1.0621182e-05, global = 4.3215968e-06, cumulative = -2.5528374e-05
ExecutionTime = 0.12 s  ClockTime = 1 s
Inflow      : -3.7384525e-07 [kg/s]
Outflow     : -3.7024104e-07 [kg/s]
EnergyInflow  : -0.11045714 [W]
EnergyOutflow : -0.10939223 [W]
rho max/avg/min : 1.2016452 1.1987637 1.1631289
T   max/avg/min : 303.37381 294.39234 293.70001
P   max/avg/min : 101324.91 101316.16 101307.41
Prg max/avg/min : 101325 101324.98 101324.44
U   max/avg/min : 7.6223818e-05 -0.00013189792 -0.00087475977
Prg max-min : 0.56264741
 
Iteration Number = 3

DILUPBiCG:  Solving for Ux, Initial residual = 0.48309443, Final residual = 0.00019108646, No Iterations 2
DILUPBiCG:  Solving for Uy, Initial residual = 0.00011243352, Final residual = 3.9397951e-08, No Iterations 2
DILUPBiCG:  Solving for Uz, Initial residual = 0.17322244, Final residual = 2.15457e-05, No Iterations 2
DILUPBiCG:  Solving for h, Initial residual = 0.15679994, Final residual = 4.8675595e-05, No Iterations 1
GAMG:  Solving for p_rgh, Initial residual = 0.011503613, Final residual = 6.3268531e-06, No Iterations 3
time step continuity errors : sum local = 1.6679608e-05, global = -2.2464414e-06, cumulative = -2.7774816e-05
ExecutionTime = 0.15 s  ClockTime = 1 s
Inflow      : -2.9459267e-07 [kg/s]
Outflow     : -2.964662e-07 [kg/s]
EnergyInflow  : -0.087040997 [W]
EnergyOutflow : -0.087594502 [W]
rho max/avg/min : 1.2016452 1.1974759 1.1543176
T   max/avg/min : 305.68958 294.71785 293.70001
P   max/avg/min : 101324.91 101316.16 101307.41
Prg max/avg/min : 101325 101324.97 101324.31
U   max/avg/min : 0.00015112606 -8.5922212e-05 -0.00067473929
Prg max-min : 0.69140253
 
Iteration Number = 4

DILUPBiCG:  Solving for Ux, Initial residual = 0.37768373, Final residual = 0.00013552519, No Iterations 2
DILUPBiCG:  Solving for Uy, Initial residual = 7.0399482e-05, Final residual = 2.0225125e-08, No Iterations 2
DILUPBiCG:  Solving for Uz, Initial residual = 0.099225473, Final residual = 3.8393169e-06, No Iterations 2
DILUPBiCG:  Solving for h, Initial residual = 0.11358709, Final residual = 4.4892689e-05, No Iterations 1
GAMG:  Solving for p_rgh, Initial residual = 0.0074364056, Final residual = 3.0569618e-06, No Iterations 3
time step continuity errors : sum local = 1.1513059e-05, global = -7.3584647e-07, cumulative = -2.8510662e-05
ExecutionTime = 0.18 s  ClockTime = 1 s
Inflow      : -2.3907942e-07 [kg/s]
Outflow     : -2.3969311e-07 [kg/s]
EnergyInflow  : -0.07063893 [W]
EnergyOutflow : -0.070820092 [W]
rho max/avg/min : 1.2016452 1.1962057 1.1471621
T   max/avg/min : 307.59633 295.0408 293.70002
P   max/avg/min : 101324.91 101316.16 101307.41
Prg max/avg/min : 101325 101324.96 101324.2
U   max/avg/min : 0.00024985168 -4.2731755e-05 -0.00051944078
Prg max-min : 0.79633751
 
Iteration Number = 5

DILUPBiCG:  Solving for Ux, Initial residual = 0.42475066, Final residual = 0.00014097665, No Iterations 2
DILUPBiCG:  Solving for Uy, Initial residual = 6.019437e-05, Final residual = 1.5907846e-08, No Iterations 2
DILUPBiCG:  Solving for Uz, Initial residual = 0.17696626, Final residual = 8.3147951e-06, No Iterations 2
DILUPBiCG:  Solving for h, Initial residual = 0.089884294, Final residual = 4.5918711e-05, No Iterations 1
GAMG:  Solving for p_rgh, Initial residual = 0.0052385504, Final residual = 3.2356356e-06, No Iterations 3
time step continuity errors : sum local = 1.5888852e-05, global = -8.5653524e-06, cumulative = -3.7076014e-05
ExecutionTime = 0.22 s  ClockTime = 1 s
Inflow      : -1.8941929e-07 [kg/s]
Outflow     : -1.9656278e-07 [kg/s]
EnergyInflow  : -0.055966239 [W]
EnergyOutflow : -0.058076497 [W]
rho max/avg/min : 1.2016451 1.1949431 1.1409804
T   max/avg/min : 309.26262 295.36338 293.70003
P   max/avg/min : 101324.91 101316.16 101307.41
Prg max/avg/min : 101325 101324.95 101324.11
U   max/avg/min : 0.00037169482 1.2642826e-05 -0.00040422059
Prg max-min : 0.88673429
 
Iteration Number = 6

DILUPBiCG:  Solving for Ux, Initial residual = 0.32110986, Final residual = 7.9418579e-05, No Iterations 2
DILUPBiCG:  Solving for Uy, Initial residual = 5.3661044e-05, Final residual = 1.4001835e-08, No Iterations 2
DILUPBiCG:  Solving for Uz, Initial residual = 0.15148481, Final residual = 3.0455899e-06, No Iterations 2
DILUPBiCG:  Solving for h, Initial residual = 0.074733149, Final residual = 4.8895452e-05, No Iterations 1
GAMG:  Solving for p_rgh, Initial residual = 0.0038177423, Final residual = 3.6252462e-06, No Iterations 3
time step continuity errors : sum local = 2.1905241e-05, global = 1.5985714e-05, cumulative = -2.10903e-05
ExecutionTime = 0.25 s  ClockTime = 1 s
Inflow      : -1.7550571e-07 [kg/s]
Outflow     : -1.6217364e-07 [kg/s]
EnergyInflow  : -0.051855304 [W]
EnergyOutflow : -0.047915433 [W]
rho max/avg/min : 1.2016451 1.1936857 1.1354886
T   max/avg/min : 310.75806 295.68604 293.70003
P   max/avg/min : 101324.91 101316.16 101307.41
Prg max/avg/min : 101325 101324.94 101324.03
U   max/avg/min : 0.00051710501 7.4731525e-05 -0.00034932302
Prg max-min : 0.96713984
 
Iteration Number = 7

DILUPBiCG:  Solving for Ux, Initial residual = 0.31392223, Final residual = 6.1531848e-05, No Iterations 2
DILUPBiCG:  Solving for Uy, Initial residual = 4.7728234e-05, Final residual = 1.1594294e-08, No Iterations 2
DILUPBiCG:  Solving for Uz, Initial residual = 0.16149721, Final residual = 3.3129871e-06, No Iterations 2
DILUPBiCG:  Solving for h, Initial residual = 0.064155415, Final residual = 5.3330292e-05, No Iterations 1
GAMG:  Solving for p_rgh, Initial residual = 0.0032480721, Final residual = 1.815601e-06, No Iterations 4
time step continuity errors : sum local = 1.3003944e-05, global = 4.9614932e-06, cumulative = -1.6128807e-05
ExecutionTime = 0.29 s  ClockTime = 1 s
Inflow      : -1.3902176e-07 [kg/s]
Outflow     : -1.3488388e-07 [kg/s]
EnergyInflow  : -0.041075676 [W]
EnergyOutflow : -0.039851737 [W]
rho max/avg/min : 1.201645 1.1924327 1.1305204
T   max/avg/min : 312.12372 296.00886 293.70003
P   max/avg/min : 101324.91 101316.16 101307.41
Prg max/avg/min : 101325 101324.93 101323.96
U   max/avg/min : 0.00069178563 0.00015711967 -0.00028921824
Prg max-min : 1.0398783
 
Iteration Number = 8

DILUPBiCG:  Solving for Ux, Initial residual = 0.28360927, Final residual = 4.9360283e-05, No Iterations 2
DILUPBiCG:  Solving for Uy, Initial residual = 4.940415e-05, Final residual = 1.0425179e-08, No Iterations 2
DILUPBiCG:  Solving for Uz, Initial residual = 0.1667383, Final residual = 3.5188237e-06, No Iterations 2
DILUPBiCG:  Solving for h, Initial residual = 0.056351704, Final residual = 2.7942255e-06, No Iterations 2
GAMG:  Solving for p_rgh, Initial residual = 0.0033146107, Final residual = 1.0793252e-06, No Iterations 4
time step continuity errors : sum local = 9.0178266e-06, global = 6.5048766e-06, cumulative = -9.6239305e-06
ExecutionTime = 0.32 s  ClockTime = 1 s
Inflow      : -1.1877526e-07 [kg/s]
Outflow     : -1.1335019e-07 [kg/s]
EnergyInflow  : -0.035093599 [W]
EnergyOutflow : -0.033488407 [W]
rho max/avg/min : 1.201645 1.1911822 1.1259683
T   max/avg/min : 313.3856 296.33218 293.70003
P   max/avg/min : 101324.91 101316.16 101307.41
Prg max/avg/min : 101325 101324.92 101323.89
U   max/avg/min : 0.00089429384 0.00026017174 -0.00026744131
Prg max-min : 1.1064711
 
Iteration Number = 9

DILUPBiCG:  Solving for Ux, Initial residual = 0.26912371, Final residual = 4.7394959e-05, No Iterations 2
DILUPBiCG:  Solving for Uy, Initial residual = 5.017865e-05, Final residual = 8.0342451e-09, No Iterations 2
DILUPBiCG:  Solving for Uz, Initial residual = 0.16040629, Final residual = 3.0431073e-06, No Iterations 2
DILUPBiCG:  Solving for h, Initial residual = 0.050353579, Final residual = 3.6397389e-06, No Iterations 2
GAMG:  Solving for p_rgh, Initial residual = 0.0030741457, Final residual = 1.4306411e-06, No Iterations 4
time step continuity errors : sum local = 1.3585025e-05, global = 2.5898887e-06, cumulative = -7.0340417e-06
ExecutionTime = 0.36 s  ClockTime = 1 s
Inflow      : -9.8188042e-08 [kg/s]
Outflow     : -9.6028076e-08 [kg/s]
EnergyInflow  : -0.029010855 [W]
EnergyOutflow : -0.028368964 [W]
rho max/avg/min : 1.201645 1.1899355 1.1217542
T   max/avg/min : 314.56288 296.65563 293.70004
P   max/avg/min : 101324.91 101316.16 101307.41
Prg max/avg/min : 101325 101324.91 101323.83
U   max/avg/min : 0.0011316425 0.00038983037 -0.00023673155
Prg max-min : 1.1681643
 
Iteration Number = 10

DILUPBiCG:  Solving for Ux, Initial residual = 0.20699008, Final residual = 3.1323635e-05, No Iterations 2
DILUPBiCG:  Solving for Uy, Initial residual = 6.9375792e-05, Final residual = 9.4679152e-09, No Iterations 2
DILUPBiCG:  Solving for Uz, Initial residual = 0.1568478, Final residual = 3.4079112e-06, No Iterations 2
DILUPBiCG:  Solving for h, Initial residual = 0.045562737, Final residual = 3.7072768e-06, No Iterations 2
GAMG:  Solving for p_rgh, Initial residual = 0.0030352149, Final residual = 1.9121374e-06, No Iterations 4
time step continuity errors : sum local = 2.0393326e-05, global = 1.3215401e-05, cumulative = 6.1813596e-06
ExecutionTime = 0.39 s  ClockTime = 1 s
Inflow      : -9.349065e-08 [kg/s]
Outflow     : -8.2469014e-08 [kg/s]
EnergyInflow  : -0.027622953 [W]
EnergyOutflow : -0.024360702 [W]
rho max/avg/min : 1.201645 1.1886924 1.117823
T   max/avg/min : 315.66915 296.97914 293.70004
P   max/avg/min : 101324.91 101316.16 101307.41
Prg max/avg/min : 101325 101324.9 101323.77
U   max/avg/min : 0.00141129 0.00055041025 -0.00024966745
Prg max-min : 1.2256444
 
Iteration Number = 11

DILUPBiCG:  Solving for Ux, Initial residual = 0.19975378, Final residual = 2.9569643e-05, No Iterations 2
DILUPBiCG:  Solving for Uy, Initial residual = 8.6086406e-05, Final residual = 9.2132281e-09, No Iterations 2
DILUPBiCG:  Solving for Uz, Initial residual = 0.15209742, Final residual = 3.6235544e-06, No Iterations 2
DILUPBiCG:  Solving for h, Initial residual = 0.041674894, Final residual = 3.2820033e-06, No Iterations 2
GAMG:  Solving for p_rgh, Initial residual = 0.0029451564, Final residual = 6.2430899e-07, No Iterations 4
time step continuity errors : sum local = 7.3546858e-06, global = 2.6676581e-07, cumulative = 6.4481254e-06
ExecutionTime = 0.43 s  ClockTime = 1 s
Inflow      : -7.2323269e-08 [kg/s]
Outflow     : -7.2100787e-08 [kg/s]
EnergyInflow  : -0.021368792 [W]
EnergyOutflow : -0.0212943 [W]
rho max/avg/min : 1.2016449 1.1874531 1.1141333
T   max/avg/min : 316.71455 297.30263 293.70006
P   max/avg/min : 101324.91 101316.16 101307.41
Prg max/avg/min : 101325 101324.9 101323.72
U   max/avg/min : 0.0017414082 0.00075148362 -0.00024280698
Prg max-min : 1.2796752
 
Iteration Number = 12

DILUPBiCG:  Solving for Ux, Initial residual = 0.16250935, Final residual = 2.3279309e-05, No Iterations 2
DILUPBiCG:  Solving for Uy, Initial residual = 0.0001102322, Final residual = 8.5449296e-09, No Iterations 2
DILUPBiCG:  Solving for Uz, Initial residual = 0.15289064, Final residual = 4.5544767e-06, No Iterations 2
DILUPBiCG:  Solving for h, Initial residual = 0.038433315, Final residual = 4.9405502e-06, No Iterations 2
GAMG:  Solving for p_rgh, Initial residual = 0.0030732622, Final residual = 1.7963039e-06, No Iterations 4
time step continuity errors : sum local = 2.3239569e-05, global = 1.2221063e-05, cumulative = 1.8669188e-05
ExecutionTime = 0.47 s  ClockTime = 1 s
Inflow      : -7.596179e-08 [kg/s]
Outflow     : -6.5769431e-08 [kg/s]
EnergyInflow  : -0.022443838 [W]
EnergyOutflow : -0.019419393 [W]
rho max/avg/min : 1.2016448 1.1862179 1.1106527
T   max/avg/min : 317.70709 297.62596 293.70008
P   max/avg/min : 101324.91 101316.16 101307.41
Prg max/avg/min : 101325 101324.89 101323.67
U   max/avg/min : 0.0021310692 0.00099365608 -0.00030089625
Prg max-min : 1.3304789
 
Iteration Number = 13

DILUPBiCG:  Solving for Ux, Initial residual = 0.1662544, Final residual = 2.583936e-05, No Iterations 2
DILUPBiCG:  Solving for Uy, Initial residual = 0.00015805253, Final residual = 8.5051129e-09, No Iterations 2
DILUPBiCG:  Solving for Uz, Initial residual = 0.14968459, Final residual = 5.4756535e-06, No Iterations 2
DILUPBiCG:  Solving for h, Initial residual = 0.03568006, Final residual = 5.4203234e-06, No Iterations 2
GAMG:  Solving for p_rgh, Initial residual = 0.0029630248, Final residual = 7.8280531e-07, No Iterations 4
time step continuity errors : sum local = 1.0929794e-05, global = 9.8799366e-07, cumulative = 1.9657182e-05
ExecutionTime = 0.5 s  ClockTime = 1 s
Inflow      : -6.3771166e-08 [kg/s]
Outflow     : -6.2947179e-08 [kg/s]
EnergyInflow  : -0.018841969 [W]
EnergyOutflow : -0.018579574 [W]
rho max/avg/min : 1.2016445 1.1849868 1.1073558
T   max/avg/min : 318.653 297.94908 293.70012
P   max/avg/min : 101324.91 101316.16 101307.41
Prg max/avg/min : 101325 101324.88 101323.62
U   max/avg/min : 0.0025986882 0.0012912483 -0.00036478279
Prg max-min : 1.3787981
 
Iteration Number = 14

DILUPBiCG:  Solving for Ux, Initial residual = 0.14444799, Final residual = 2.3716389e-05, No Iterations 2
DILUPBiCG:  Solving for Uy, Initial residual = 0.00019654873, Final residual = 1.255568e-08, No Iterations 2
DILUPBiCG:  Solving for Uz, Initial residual = 0.14944887, Final residual = 4.9482039e-06, No Iterations 2
DILUPBiCG:  Solving for h, Initial residual = 0.033333731, Final residual = 8.1538313e-06, No Iterations 2
GAMG:  Solving for p_rgh, Initial residual = 0.0032505372, Final residual = 6.9888306e-07, No Iterations 5
time step continuity errors : sum local = 1.0528201e-05, global = 7.4656934e-06, cumulative = 2.7122875e-05
ExecutionTime = 0.53 s  ClockTime = 1 s
Inflow      : -7.070351e-08 [kg/s]
Outflow     : -6.4477126e-08 [kg/s]
EnergyInflow  : -0.020890215 [W]
EnergyOutflow : -0.019023343 [W]
rho max/avg/min : 1.2016443 1.1837605 1.1042215
T   max/avg/min : 319.55747 298.27181 293.70019
P   max/avg/min : 101324.91 101316.16 101307.41
Prg max/avg/min : 101325 101324.87 101323.58
U   max/avg/min : 0.0031533335 0.0016450518 -0.00051423843
Prg max-min : 1.4244373
 
Iteration Number = 15

DILUPBiCG:  Solving for Ux, Initial residual = 0.14440621, Final residual = 2.7308006e-05, No Iterations 2
DILUPBiCG:  Solving for Uy, Initial residual = 0.00029339405, Final residual = 1.6912056e-08, No Iterations 2
DILUPBiCG:  Solving for Uz, Initial residual = 0.14692237, Final residual = 8.0282625e-06, No Iterations 2
DILUPBiCG:  Solving for h, Initial residual = 0.031269702, Final residual = 1.0389831e-05, No Iterations 2
GAMG:  Solving for p_rgh, Initial residual = 0.0035861496, Final residual = 1.4167664e-06, No Iterations 4
time step continuity errors : sum local = 2.2692443e-05, global = 3.5156547e-06, cumulative = 3.063853e-05
ExecutionTime = 0.57 s  ClockTime = 1 s
Inflow      : -7.6510621e-08 [kg/s]
Outflow     : -7.3578567e-08 [kg/s]
EnergyInflow  : -0.022605997 [W]
EnergyOutflow : -0.021701074 [W]
rho max/avg/min : 1.2016436 1.1825389 1.1012329
T   max/avg/min : 320.42473 298.59408 293.70029
P   max/avg/min : 101324.91 101316.16 101307.41
Prg max/avg/min : 101325 101324.86 101323.53
U   max/avg/min : 0.0038146836 0.0020618223 -0.00070667808
Prg max-min : 1.468151
 
Iteration Number = 16

DILUPBiCG:  Solving for Ux, Initial residual = 0.11663306, Final residual = 2.3140729e-05, No Iterations 2
DILUPBiCG:  Solving for Uy, Initial residual = 0.00035679761, Final residual = 3.1258959e-08, No Iterations 2
DILUPBiCG:  Solving for Uz, Initial residual = 0.14274669, Final residual = 6.6502894e-06, No Iterations 2
DILUPBiCG:  Solving for h, Initial residual = 0.029454429, Final residual = 1.8681731e-05, No Iterations 2
GAMG:  Solving for p_rgh, Initial residual = 0.0036976729, Final residual = 5.0179586e-07, No Iterations 5
time step continuity errors : sum local = 8.4877351e-06, global = 1.3259599e-06, cumulative = 3.196449e-05
ExecutionTime = 0.61 s  ClockTime = 1 s
Inflow      : -8.7788857e-08 [kg/s]
Outflow     : -8.6683007e-08 [kg/s]
EnergyInflow  : -0.025938289 [W]
EnergyOutflow : -0.025557156 [W]
rho max/avg/min : 1.2016428 1.1813227 1.0983752
T   max/avg/min : 321.25838 298.91569 293.70044
P   max/avg/min : 101324.91 101316.16 101307.41
Prg max/avg/min : 101325 101324.85 101323.49
U   max/avg/min : 0.0045992541 0.0025521813 -0.00096384405
Prg max-min : 1.5097596
 
Iteration Number = 17

DILUPBiCG:  Solving for Ux, Initial residual = 0.11285536, Final residual = 2.7741857e-05, No Iterations 2
DILUPBiCG:  Solving for Uy, Initial residual = 0.00049920694, Final residual = 3.8791438e-08, No Iterations 2
DILUPBiCG:  Solving for Uz, Initial residual = 0.1392794, Final residual = 9.8188595e-06, No Iterations 2
DILUPBiCG:  Solving for h, Initial residual = 0.027844012, Final residual = 1.0267507e-05, No Iterations 3
GAMG:  Solving for p_rgh, Initial residual = 0.0041116273, Final residual = 3.0060292e-06, No Iterations 4
time step continuity errors : sum local = 5.3282818e-05, global = 1.2355531e-05, cumulative = 4.4320021e-05
ExecutionTime = 0.65 s  ClockTime = 1 s
Inflow      : -1.2295667e-07 [kg/s]
Outflow     : -1.1265217e-07 [kg/s]
EnergyInflow  : -0.036329048 [W]
EnergyOutflow : -0.033208497 [W]
rho max/avg/min : 1.2016408 1.1801104 1.0956364
T   max/avg/min : 322.06144 299.23698 293.70072
P   max/avg/min : 101324.91 101316.16 101307.41
Prg max/avg/min : 101325 101324.84 101323.45
U   max/avg/min : 0.0055244785 0.0031145262 -0.0013492196
Prg max-min : 1.5495795
 
Iteration Number = 18

DILUPBiCG:  Solving for Ux, Initial residual = 0.10875188, Final residual = 2.9603745e-05, No Iterations 2
DILUPBiCG:  Solving for Uy, Initial residual = 0.00063866571, Final residual = 6.5898504e-08, No Iterations 2
DILUPBiCG:  Solving for Uz, Initial residual = 0.13391216, Final residual = 1.0744006e-05, No Iterations 2
DILUPBiCG:  Solving for h, Initial residual = 0.026381954, Final residual = 1.5820745e-05, No Iterations 3
GAMG:  Solving for p_rgh, Initial residual = 0.0043082101, Final residual = 3.8273095e-06, No Iterations 4
time step continuity errors : sum local = 7.0236031e-05, global = 3.3904737e-05, cumulative = 7.8224758e-05
ExecutionTime = 0.68 s  ClockTime = 1 s
Inflow      : -1.7162334e-07 [kg/s]
Outflow     : -1.4334681e-07 [kg/s]
EnergyInflow  : -0.050708211 [W]
EnergyOutflow : -0.042248066 [W]
rho max/avg/min : 1.2016376 1.1789039 1.0930059
T   max/avg/min : 322.83654 299.55748 293.70113
P   max/avg/min : 101324.91 101316.16 101307.41
Prg max/avg/min : 101325 101324.83 101323.41
U   max/avg/min : 0.0066165607 0.0037632173 -0.0018201219
Prg max-min : 1.5878495
 
Iteration Number = 19

DILUPBiCG:  Solving for Ux, Initial residual = 0.099426515, Final residual = 3.0398576e-05, No Iterations 2
DILUPBiCG:  Solving for Uy, Initial residual = 0.00084461971, Final residual = 1.0655363e-07, No Iterations 2
DILUPBiCG:  Solving for Uz, Initial residual = 0.12777294, Final residual = 1.1037059e-05, No Iterations 2
DILUPBiCG:  Solving for h, Initial residual = 0.025053014, Final residual = 2.1600149e-05, No Iterations 3
GAMG:  Solving for p_rgh, Initial residual = 0.0047757965, Final residual = 4.4997085e-06, No Iterations 4
time step continuity errors : sum local = 8.4965675e-05, global = 1.416138e-05, cumulative = 9.2386138e-05
ExecutionTime = 0.72 s  ClockTime = 1 s
Inflow      : -1.8951063e-07 [kg/s]
Outflow     : -1.7770005e-07 [kg/s]
EnergyInflow  : -0.055993228 [W]
EnergyOutflow : -0.052357142 [W]
rho max/avg/min : 1.2016324 1.1777034 1.0904745
T   max/avg/min : 323.58596 299.87707 293.70173
P   max/avg/min : 101324.91 101316.16 101307.41
Prg max/avg/min : 101325 101324.82 101323.38
U   max/avg/min : 0.007892459 0.0045038789 -0.002348591
Prg max-min : 1.6244927
 
Iteration Number = 20

DILUPBiCG:  Solving for Ux, Initial residual = 0.10202459, Final residual = 3.7216208e-05, No Iterations 2
DILUPBiCG:  Solving for Uy, Initial residual = 0.00091754767, Final residual = 1.3603074e-07, No Iterations 2
DILUPBiCG:  Solving for Uz, Initial residual = 0.12101856, Final residual = 1.1212268e-05, No Iterations 2
DILUPBiCG:  Solving for h, Initial residual = 0.023840056, Final residual = 3.487869e-06, No Iterations 4
GAMG:  Solving for p_rgh, Initial residual = 0.0051540451, Final residual = 4.8111379e-06, No Iterations 4
time step continuity errors : sum local = 9.3524273e-05, global = 5.1695714e-05, cumulative = 0.00014408185
ExecutionTime = 0.75 s  ClockTime = 1 s
Inflow      : -2.7714098e-07 [kg/s]
Outflow     : -2.3402679e-07 [kg/s]
EnergyInflow  : -0.081884684 [W]
EnergyOutflow : -0.068943722 [W]
rho max/avg/min : 1.2016253 1.1765094 1.0880358
T   max/avg/min : 324.31125 300.1956 293.7026
P   max/avg/min : 101324.91 101316.16 101307.41
Prg max/avg/min : 101325 101324.82 101323.34
U   max/avg/min : 0.0093753646 0.00532874 -0.0030594257
Prg max-min : 1.6597796
 
Iteration Number = 21

DILUPBiCG:  Solving for Ux, Initial residual = 0.099390391, Final residual = 4.1419177e-05, No Iterations 2
DILUPBiCG:  Solving for Uy, Initial residual = 0.0010783705, Final residual = 2.148568e-07, No Iterations 2
DILUPBiCG:  Solving for Uz, Initial residual = 0.11391725, Final residual = 1.2373119e-05, No Iterations 2
DILUPBiCG:  Solving for h, Initial residual = 0.022708588, Final residual = 9.08405e-06, No Iterations 4
GAMG:  Solving for p_rgh, Initial residual = 0.0056268068, Final residual = 1.1253325e-06, No Iterations 5
time step continuity errors : sum local = 2.2202592e-05, global = 1.3508367e-05, cumulative = 0.00015759022
ExecutionTime = 0.79 s  ClockTime = 1 s
Inflow      : -3.0163428e-07 [kg/s]
Outflow     : -2.9036831e-07 [kg/s]
EnergyInflow  : -0.089121529 [W]
EnergyOutflow : -0.085514047 [W]
rho max/avg/min : 1.2016187 1.175323 1.0856813
T   max/avg/min : 325.01457 300.51279 293.70392
P   max/avg/min : 101324.91 101316.16 101307.41
Prg max/avg/min : 101325 101324.81 101323.31
U   max/avg/min : 0.011093149 0.0062602063 -0.0038350552
Prg max-min : 1.6941057
 
Iteration Number = 22

DILUPBiCG:  Solving for Ux, Initial residual = 0.10196952, Final residual = 5.0353433e-05, No Iterations 2
DILUPBiCG:  Solving for Uy, Initial residual = 0.0015069125, Final residual = 3.7998084e-07, No Iterations 2
DILUPBiCG:  Solving for Uz, Initial residual = 0.10546665, Final residual = 1.0232921e-05, No Iterations 2
DILUPBiCG:  Solving for h, Initial residual = 0.021658913, Final residual = 1.8915321e-06, No Iterations 5
GAMG:  Solving for p_rgh, Initial residual = 0.0063119612, Final residual = 1.7079474e-06, No Iterations 5
time step continuity errors : sum local = 3.4584665e-05, global = 1.2777713e-05, cumulative = 0.00017036793
ExecutionTime = 0.82 s  ClockTime = 1 s
Inflow      : -3.5101751e-07 [kg/s]
Outflow     : -3.403609e-07 [kg/s]
EnergyInflow  : -0.1037124 [W]
EnergyOutflow : -0.10018125 [W]
rho max/avg/min : 1.2016141 1.1741438 1.083405
T   max/avg/min : 325.69746 300.82872 293.70586
P   max/avg/min : 101324.91 101316.16 101307.41
Prg max/avg/min : 101325 101324.8 101323.27
U   max/avg/min : 0.013058062 0.0072938081 -0.0047665601
Prg max-min : 1.7272413
 
Iteration Number = 23

DILUPBiCG:  Solving for Ux, Initial residual = 0.10034995, Final residual = 5.3373298e-05, No Iterations 2
DILUPBiCG:  Solving for Uy, Initial residual = 0.0018108268, Final residual = 4.8287228e-07, No Iterations 2
DILUPBiCG:  Solving for Uz, Initial residual = 0.098745883, Final residual = 1.0987717e-05, No Iterations 2
DILUPBiCG:  Solving for h, Initial residual = 0.020677212, Final residual = 1.8050492e-05, No Iterations 5
GAMG:  Solving for p_rgh, Initial residual = 0.0072600504, Final residual = 7.1081523e-06, No Iterations 4
time step continuity errors : sum local = 0.00014676513, global = 1.0401944e-05, cumulative = 0.00018076988
ExecutionTime = 0.86 s  ClockTime = 1 s
Inflow      : -3.7975956e-07 [kg/s]
Outflow     : -3.7108434e-07 [kg/s]
EnergyInflow  : -0.11220459 [W]
EnergyOutflow : -0.10911559 [W]
rho max/avg/min : 1.2016097 1.1729721 1.0812024
T   max/avg/min : 326.36095 301.14326 293.7087
P   max/avg/min : 101324.91 101316.16 101307.41
Prg max/avg/min : 101325 101324.79 101323.24
U   max/avg/min : 0.015285052 0.0084309428 -0.0057712853
Prg max-min : 1.7592389
 
Iteration Number = 24

DILUPBiCG:  Solving for Ux, Initial residual = 0.091696518, Final residual = 5.7609805e-05, No Iterations 2
DILUPBiCG:  Solving for Uy, Initial residual = 0.0019241807, Final residual = 7.4178393e-07, No Iterations 2
DILUPBiCG:  Solving for Uz, Initial residual = 0.091185309, Final residual = 1.0445109e-05, No Iterations 2
DILUPBiCG:  Solving for h, Initial residual = 0.01975883, Final residual = 5.4638864e-06, No Iterations 5
GAMG:  Solving for p_rgh, Initial residual = 0.0079921018, Final residual = 6.6098075e-06, No Iterations 4
time step continuity errors : sum local = 0.0001398079, global = 6.723805e-05, cumulative = 0.00024800793
ExecutionTime = 0.9 s  ClockTime = 1 s
Inflow      : -4.6217526e-07 [kg/s]
Outflow     : -4.0609877e-07 [kg/s]
EnergyInflow  : -0.13655532 [W]
EnergyOutflow : -0.11926984 [W]
rho max/avg/min : 1.2016066 1.1718102 1.0790666
T   max/avg/min : 327.00692 301.4558 293.70945
P   max/avg/min : 101324.91 101316.16 101307.41
Prg max/avg/min : 101325 101324.78 101323.21
U   max/avg/min : 0.017781187 0.009664101 -0.0069869953
Prg max-min : 1.7901511
 
Iteration Number = 25

DILUPBiCG:  Solving for Ux, Initial residual = 0.090265265, Final residual = 6.1607707e-05, No Iterations 2
DILUPBiCG:  Solving for Uy, Initial residual = 0.0023682261, Final residual = 1.4572441e-06, No Iterations 2
DILUPBiCG:  Solving for Uz, Initial residual = 0.085073485, Final residual = 1.0948113e-05, No Iterations 2
DILUPBiCG:  Solving for h, Initial residual = 0.018883882, Final residual = 6.3505746e-06, No Iterations 5
GAMG:  Solving for p_rgh, Initial residual = 0.0083234108, Final residual = 4.7867782e-06, No Iterations 4
time step continuity errors : sum local = 0.00010293547, global = -1.9583118e-06, cumulative = 0.00024604961
ExecutionTime = 0.94 s  ClockTime = 1 s
Inflow      : -3.9727766e-07 [kg/s]
Outflow     : -3.9891089e-07 [kg/s]
EnergyInflow  : -0.11738053 [W]
EnergyOutflow : -0.11689712 [W]
rho max/avg/min : 1.2016027 1.1706586 1.0769939
T   max/avg/min : 327.63627 301.76626 293.7104
P   max/avg/min : 101324.91 101316.16 101307.41
Prg max/avg/min : 101325 101324.77 101323.18
U   max/avg/min : 0.020572177 0.011029514 -0.0084801798
Prg max-min : 1.8200771
 
Iteration Number = 26

DILUPBiCG:  Solving for Ux, Initial residual = 0.083338604, Final residual = 5.800236e-05, No Iterations 2
DILUPBiCG:  Solving for Uy, Initial residual = 0.0027308569, Final residual = 3.9646164e-08, No Iterations 3
DILUPBiCG:  Solving for Uz, Initial residual = 0.07836254, Final residual = 1.1744444e-05, No Iterations 2
DILUPBiCG:  Solving for h, Initial residual = 0.018069297, Final residual = 5.8380883e-06, No Iterations 5
GAMG:  Solving for p_rgh, Initial residual = 0.0090102573, Final residual = 6.4040478e-06, No Iterations 4
time step continuity errors : sum local = 0.00014371903, global = 2.770745e-05, cumulative = 0.00027375706
ExecutionTime = 0.98 s  ClockTime = 1 s
Inflow      : -3.5869545e-07 [kg/s]
Outflow     : -3.3558745e-07 [kg/s]
EnergyInflow  : -0.10598095 [W]
EnergyOutflow : -0.097855561 [W]
rho max/avg/min : 1.2016002 1.1695182 1.0749801
T   max/avg/min : 328.25005 302.07436 293.71101
P   max/avg/min : 101324.91 101316.16 101307.41
Prg max/avg/min : 101325 101324.77 101323.15
U   max/avg/min : 0.023648539 0.012496465 -0.010038674
Prg max-min : 1.8490139
 
Iteration Number = 27

DILUPBiCG:  Solving for Ux, Initial residual = 0.087021972, Final residual = 7.0993413e-05, No Iterations 2
DILUPBiCG:  Solving for Uy, Initial residual = 0.0030173354, Final residual = 1.9250727e-06, No Iterations 2
DILUPBiCG:  Solving for Uz, Initial residual = 0.073284189, Final residual = 1.1769605e-05, No Iterations 2
DILUPBiCG:  Solving for h, Initial residual = 0.017298386, Final residual = 9.3331886e-06, No Iterations 5
GAMG:  Solving for p_rgh, Initial residual = 0.0095176678, Final residual = 3.9140568e-06, No Iterations 4
time step continuity errors : sum local = 9.1083996e-05, global = 5.9417188e-06, cumulative = 0.00027969878
ExecutionTime = 1.01 s  ClockTime = 1 s
Inflow      : -2.7114145e-07 [kg/s]
Outflow     : -2.6618606e-07 [kg/s]
EnergyInflow  : -0.080112049 [W]
EnergyOutflow : -0.07693599 [W]
rho max/avg/min : 1.2015976 1.1683896 1.0730219
T   max/avg/min : 328.84908 302.37992 293.71165
P   max/avg/min : 101324.91 101316.16 101307.41
Prg max/avg/min : 101325 101324.76 101323.13
U   max/avg/min : 0.027000495 0.014076497 -0.011797417
Prg max-min : 1.8770218
 
Iteration Number = 28

DILUPBiCG:  Solving for Ux, Initial residual = 0.078689423, Final residual = 6.6919405e-05, No Iterations 2
DILUPBiCG:  Solving for Uy, Initial residual = 0.0033007674, Final residual = 6.5517373e-08, No Iterations 3
DILUPBiCG:  Solving for Uz, Initial residual = 0.067662642, Final residual = 1.3010669e-05, No Iterations 2
DILUPBiCG:  Solving for h, Initial residual = 0.016561878, Final residual = 6.4927806e-06, No Iterations 4
GAMG:  Solving for p_rgh, Initial residual = 0.0085092446, Final residual = 5.3202097e-06, No Iterations 4
time step continuity errors : sum local = 0.00012985649, global = 5.4367676e-05, cumulative = 0.00033406646
ExecutionTime = 1.05 s  ClockTime = 1 s
Inflow      : -1.6297886e-07 [kg/s]
Outflow     : -1.1763625e-07 [kg/s]
EnergyInflow  : -0.048154094 [W]
EnergyOutflow : -0.032531067 [W]
rho max/avg/min : 1.2015956 1.1672752 1.0711153
T   max/avg/min : 329.43444 302.68231 293.71213
P   max/avg/min : 101324.91 101316.16 101307.42
Prg max/avg/min : 101325 101324.75 101323.1
U   max/avg/min : 0.030632819 0.015756071 -0.013564531
Prg max-min : 1.9042072
 
Iteration Number = 29

DILUPBiCG:  Solving for Ux, Initial residual = 0.079806258, Final residual = 7.252084e-05, No Iterations 2
DILUPBiCG:  Solving for Uy, Initial residual = 0.0037390388, Final residual = 2.4817746e-06, No Iterations 2
DILUPBiCG:  Solving for Uz, Initial residual = 0.063258298, Final residual = 1.2528619e-05, No Iterations 2
DILUPBiCG:  Solving for h, Initial residual = 0.015863955, Final residual = 5.3930428e-06, No Iterations 4
GAMG:  Solving for p_rgh, Initial residual = 0.0078769241, Final residual = 4.5644557e-06, No Iterations 4
time step continuity errors : sum local = 0.00011615276, global = 7.1649059e-06, cumulative = 0.00034123136
ExecutionTime = 1.08 s  ClockTime = 1 s
Inflow      : 5.5517565e-08 [kg/s]
Outflow     : 6.1493092e-08 [kg/s]
EnergyInflow  : 0.016403342 [W]
EnergyOutflow : 0.021009885 [W]
rho max/avg/min : 1.2015928 1.1661748 1.0692578
T   max/avg/min : 330.00672 302.98157 293.71281
P   max/avg/min : 101324.91 101316.16 101307.41
Prg max/avg/min : 101325 101324.74 101323.07
U   max/avg/min : 0.03456084 0.017551347 -0.01533018
Prg max-min : 1.9307555
 
Iteration Number = 30

DILUPBiCG:  Solving for Ux, Initial residual = 0.072403945, Final residual = 6.5502112e-05, No Iterations 2
DILUPBiCG:  Solving for Uy, Initial residual = 0.0038547042, Final residual = 3.2058985e-06, No Iterations 2
DILUPBiCG:  Solving for Uz, Initial residual = 0.059113341, Final residual = 1.3680586e-05, No Iterations 2
DILUPBiCG:  Solving for h, Initial residual = 0.015209961, Final residual = 2.8260539e-07, No Iterations 7
GAMG:  Solving for p_rgh, Initial residual = 0.0078386335, Final residual = 4.609199e-06, No Iterations 4
time step continuity errors : sum local = 0.00012497808, global = 2.2711944e-05, cumulative = 0.00036394331
ExecutionTime = 1.12 s  ClockTime = 2 s
Inflow      : 3.0228807e-07 [kg/s]
Outflow     : 3.2122981e-07 [kg/s]
EnergyInflow  : 0.089314697 [W]
EnergyOutflow : 0.098505589 [W]
rho max/avg/min : 1.2015914 1.1650893 1.0674466
T   max/avg/min : 330.56667 303.27747 293.71315
P   max/avg/min : 101324.91 101316.16 101307.42
Prg max/avg/min : 101325 101324.73 101323.05
U   max/avg/min : 0.038743806 0.01944399 -0.016965666
Prg max-min : 1.9564583
 
Iteration Number = 31

DILUPBiCG:  Solving for Ux, Initial residual = 0.07213291, Final residual = 6.8707615e-05, No Iterations 2
DILUPBiCG:  Solving for Uy, Initial residual = 0.0042815607, Final residual = 3.7977227e-06, No Iterations 2
DILUPBiCG:  Solving for Uz, Initial residual = 0.05507821, Final residual = 1.2765435e-05, No Iterations 2
DILUPBiCG:  Solving for h, Initial residual = 0.014583018, Final residual = 6.3474447e-06, No Iterations 4
GAMG:  Solving for p_rgh, Initial residual = 0.0064046699, Final residual = 3.87892e-06, No Iterations 4
time step continuity errors : sum local = 0.00011180512, global = -1.9497814e-06, cumulative = 0.00036199353
ExecutionTime = 1.16 s  ClockTime = 2 s
Inflow      : 6.9004914e-07 [kg/s]
Outflow     : 6.8842302e-07 [kg/s]
EnergyInflow  : 0.20388344 [W]
EnergyOutflow : 0.20790622 [W]
rho max/avg/min : 1.2015911 1.1640198 1.0656798
T   max/avg/min : 331.11471 303.56968 293.71323
P   max/avg/min : 101324.91 101316.16 101307.42
Prg max/avg/min : 101325 101324.72 101323.02
U   max/avg/min : 0.043183118 0.021457585 -0.018556125
Prg max-min : 1.9816102
 
Iteration Number = 32

DILUPBiCG:  Solving for Ux, Initial residual = 0.067795906, Final residual = 4.3009676e-06, No Iterations 3
DILUPBiCG:  Solving for Uy, Initial residual = 0.0049058005, Final residual = 3.57426e-06, No Iterations 2
DILUPBiCG:  Solving for Uz, Initial residual = 0.052702378, Final residual = 1.3471884e-05, No Iterations 2
DILUPBiCG:  Solving for h, Initial residual = 0.013994629, Final residual = 7.7687395e-06, No Iterations 4
GAMG:  Solving for p_rgh, Initial residual = 0.0056438352, Final residual = 5.5955012e-06, No Iterations 4
time step continuity errors : sum local = 0.00017725661, global = -4.6665139e-05, cumulative = 0.00031532839
ExecutionTime = 1.2 s  ClockTime = 2 s
Inflow      : 1.1311727e-06 [kg/s]
Outflow     : 1.092254e-06 [kg/s]
EnergyInflow  : 0.33421878 [W]
EnergyOutflow : 0.32826511 [W]
rho max/avg/min : 1.2015923 1.1629677 1.0639549
T   max/avg/min : 331.65154 303.85783 293.71293
P   max/avg/min : 101324.91 101316.16 101307.42
Prg max/avg/min : 101325 101324.72 101323
U   max/avg/min : 0.047868797 0.023561964 -0.020106595
Prg max-min : 2.0060967
 
Iteration Number = 33

DILUPBiCG:  Solving for Ux, Initial residual = 0.066491549, Final residual = 3.1010814e-06, No Iterations 3
DILUPBiCG:  Solving for Uy, Initial residual = 0.0055121687, Final residual = 8.4622435e-07, No Iterations 3
DILUPBiCG:  Solving for Uz, Initial residual = 0.048735735, Final residual = 1.2023695e-05, No Iterations 2
DILUPBiCG:  Solving for h, Initial residual = 0.013447122, Final residual = 1.2831029e-05, No Iterations 5
GAMG:  Solving for p_rgh, Initial residual = 0.006554774, Final residual = 3.1692298e-06, No Iterations 4
time step continuity errors : sum local = 0.00010087619, global = -2.2777619e-05, cumulative = 0.00029255077
ExecutionTime = 1.23 s  ClockTime = 2 s
Inflow      : 1.6166885e-06 [kg/s]
Outflow     : 1.597692e-06 [kg/s]
EnergyInflow  : 0.47767034 [W]
EnergyOutflow : 0.47884344 [W]
rho max/avg/min : 1.2015957 1.1619329 1.0622696
T   max/avg/min : 332.17771 304.14194 293.71211
P   max/avg/min : 101324.91 101316.16 101307.42
Prg max/avg/min : 101325 101324.71 101322.97
U   max/avg/min : 0.052800426 0.025743442 -0.021584916
Prg max-min : 2.029884
 
Iteration Number = 34

DILUPBiCG:  Solving for Ux, Initial residual = 0.058611853, Final residual = 4.1942399e-06, No Iterations 3
DILUPBiCG:  Solving for Uy, Initial residual = 0.0055843761, Final residual = 5.2939518e-06, No Iterations 2
DILUPBiCG:  Solving for Uz, Initial residual = 0.047009182, Final residual = 1.2051627e-05, No Iterations 2
DILUPBiCG:  Solving for h, Initial residual = 0.012910815, Final residual = 5.6927233e-06, No Iterations 5
GAMG:  Solving for p_rgh, Initial residual = 0.0062356565, Final residual = 2.4189674e-06, No Iterations 5
time step continuity errors : sum local = 7.0246319e-05, global = 3.7623613e-06, cumulative = 0.00029631313
ExecutionTime = 1.27 s  ClockTime = 2 s
Inflow      : 2.2179295e-06 [kg/s]
Outflow     : 2.2210673e-06 [kg/s]
EnergyInflow  : 0.65531434 [W]
EnergyOutflow : 0.66447265 [W]
rho max/avg/min : 1.2016024 1.160918 1.0606213
T   max/avg/min : 332.69394 304.42136 293.71048
P   max/avg/min : 101324.91 101316.16 101307.42
Prg max/avg/min : 101325 101324.7 101322.95
U   max/avg/min : 0.057978513 0.028036453 -0.022772483
Prg max-min : 2.0530794
 
Iteration Number = 35

DILUPBiCG:  Solving for Ux, Initial residual = 0.058842971, Final residual = 2.8381766e-06, No Iterations 3
DILUPBiCG:  Solving for Uy, Initial residual = 0.0062734545, Final residual = 2.6464516e-06, No Iterations 3
DILUPBiCG:  Solving for Uz, Initial residual = 0.044269091, Final residual = 1.1128688e-05, No Iterations 2
DILUPBiCG:  Solving for h, Initial residual = 0.012407633, Final residual = 3.5502156e-06, No Iterations 5
GAMG:  Solving for p_rgh, Initial residual = 0.0071354186, Final residual = 3.5101979e-06, No Iterations 4
time step continuity errors : sum local = 9.3331321e-05, global = -1.7153801e-05, cumulative = 0.00027915933
ExecutionTime = 1.3 s  ClockTime = 2 s
Inflow      : 2.9628199e-06 [kg/s]
Outflow     : 2.9485136e-06 [kg/s]
EnergyInflow  : 0.87540128 [W]
EnergyOutflow : 0.8810413 [W]
rho max/avg/min : 1.2016247 1.1599233 1.0590088
T   max/avg/min : 333.20054 304.69594 293.70503
P   max/avg/min : 101324.91 101316.16 101307.42
Prg max/avg/min : 101325 101324.69 101322.93
U   max/avg/min : 0.063376018 0.030417141 -0.023824264
Prg max-min : 2.0760399
 
Iteration Number = 36

DILUPBiCG:  Solving for Ux, Initial residual = 0.052389419, Final residual = 8.5645338e-06, No Iterations 3
DILUPBiCG:  Solving for Uy, Initial residual = 0.0063529594, Final residual = 3.3626786e-07, No Iterations 3
DILUPBiCG:  Solving for Uz, Initial residual = 0.043368852, Final residual = 1.1543742e-05, No Iterations 2
DILUPBiCG:  Solving for h, Initial residual = 0.011929738, Final residual = 8.2839611e-06, No Iterations 5
GAMG:  Solving for p_rgh, Initial residual = 0.0085745363, Final residual = 5.5207147e-06, No Iterations 4
time step continuity errors : sum local = 0.00013514334, global = 9.0447161e-05, cumulative = 0.00036960649
ExecutionTime = 1.34 s  ClockTime = 2 s
Inflow      : 3.6987983e-06 [kg/s]
Outflow     : 3.7742312e-06 [kg/s]
EnergyInflow  : 1.0928551 [W]
EnergyOutflow : 1.1268414 [W]
rho max/avg/min : 1.2016375 1.1589496 1.0574311
T   max/avg/min : 333.69766 304.96548 293.70188
P   max/avg/min : 101324.91 101316.16 101307.42
Prg max/avg/min : 101325 101324.69 101322.91
U   max/avg/min : 0.068974575 0.032868453 -0.024683291
Prg max-min : 2.0983164
 
Iteration Number = 37

DILUPBiCG:  Solving for Ux, Initial residual = 0.051476848, Final residual = 3.1899405e-06, No Iterations 3
DILUPBiCG:  Solving for Uy, Initial residual = 0.0063302573, Final residual = 3.2087909e-07, No Iterations 3
DILUPBiCG:  Solving for Uz, Initial residual = 0.040568955, Final residual = 1.0530957e-05, No Iterations 2
DILUPBiCG:  Solving for h, Initial residual = 0.011471699, Final residual = 3.0258624e-06, No Iterations 7
GAMG:  Solving for p_rgh, Initial residual = 0.011230433, Final residual = 5.0647235e-06, No Iterations 4
time step continuity errors : sum local = 0.00011496275, global = 1.1075061e-05, cumulative = 0.00038068155
ExecutionTime = 1.38 s  ClockTime = 2 s
Inflow      : 4.6968815e-06 [kg/s]
Outflow     : 4.7061181e-06 [kg/s]
EnergyInflow  : 1.3877509 [W]
EnergyOutflow : 1.4043191 [W]
rho max/avg/min : 1.2016428 1.157998 1.0558857
T   max/avg/min : 334.18606 305.22966 293.70059
P   max/avg/min : 101324.91 101316.16 101307.42
Prg max/avg/min : 101325 101324.68 101322.88
U   max/avg/min : 0.074757168 0.035409425 -0.025331284
Prg max-min : 2.1198193
 
Iteration Number = 38

DILUPBiCG:  Solving for Ux, Initial residual = 0.047822788, Final residual = 3.1493422e-06, No Iterations 3
DILUPBiCG:  Solving for Uy, Initial residual = 0.0066288049, Final residual = 2.1780356e-06, No Iterations 3
DILUPBiCG:  Solving for Uz, Initial residual = 0.041159638, Final residual = 1.1824833e-05, No Iterations 2
DILUPBiCG:  Solving for h, Initial residual = 0.011017879, Final residual = 9.3545725e-06, No Iterations 6
GAMG:  Solving for p_rgh, Initial residual = 0.010690241, Final residual = 5.1114461e-06, No Iterations 4
time step continuity errors : sum local = 0.00010578285, global = 5.6480081e-05, cumulative = 0.00043716163
ExecutionTime = 1.41 s  ClockTime = 2 s
Inflow      : 5.696666e-06 [kg/s]
Outflow     : 5.7437704e-06 [kg/s]
EnergyInflow  : 1.6831495 [W]
EnergyOutflow : 1.7132602 [W]
rho max/avg/min : 1.2016449 1.1570699 1.0543717
T   max/avg/min : 334.66592 305.48811 293.70008
P   max/avg/min : 101324.91 101316.16 101307.42
Prg max/avg/min : 101325 101324.67 101322.86
U   max/avg/min : 0.080695499 0.038003318 -0.0257952
Prg max-min : 2.1408916
 
Iteration Number = 39

DILUPBiCG:  Solving for Ux, Initial residual = 0.044409629, Final residual = 2.4958235e-06, No Iterations 3
DILUPBiCG:  Solving for Uy, Initial residual = 0.0077266173, Final residual = 3.59914e-07, No Iterations 3
DILUPBiCG:  Solving for Uz, Initial residual = 0.037865053, Final residual = 1.0550297e-05, No Iterations 2
DILUPBiCG:  Solving for h, Initial residual = 0.010586129, Final residual = 8.3248291e-06, No Iterations 4
GAMG:  Solving for p_rgh, Initial residual = 0.012694678, Final residual = 7.3771198e-06, No Iterations 4
time step continuity errors : sum local = 0.00014103404, global = 1.0023321e-05, cumulative = 0.00044718495
ExecutionTime = 1.46 s  ClockTime = 2 s
Inflow      : 6.9467233e-06 [kg/s]
Outflow     : 6.9550827e-06 [kg/s]
EnergyInflow  : 2.0524941 [W]
EnergyOutflow : 2.0737455 [W]
rho max/avg/min : 1.2016456 1.1561651 1.0528901
T   max/avg/min : 335.13688 305.74088 293.69992
P   max/avg/min : 101324.91 101316.16 101307.42
Prg max/avg/min : 101325 101324.66 101322.84
U   max/avg/min : 0.08682007 0.040706012 -0.025958401
Prg max-min : 2.1619701
 
Iteration Number = 40

DILUPBiCG:  Solving for Ux, Initial residual = 0.046873737, Final residual = 4.6311145e-06, No Iterations 3
DILUPBiCG:  Solving for Uy, Initial residual = 0.0084114332, Final residual = 8.2253402e-06, No Iterations 2
DILUPBiCG:  Solving for Uz, Initial residual = 0.040917806, Final residual = 1.4436503e-05, No Iterations 2
DILUPBiCG:  Solving for h, Initial residual = 0.010172002, Final residual = 2.1820791e-06, No Iterations 7
GAMG:  Solving for p_rgh, Initial residual = 0.016164153, Final residual = 8.6608126e-06, No Iterations 4
time step continuity errors : sum local = 0.00015464668, global = -6.8413009e-05, cumulative = 0.00037877194
ExecutionTime = 1.49 s  ClockTime = 2 s
Inflow      : 8.3343593e-06 [kg/s]
Outflow     : 8.2773029e-06 [kg/s]
EnergyInflow  : 2.4624881 [W]
EnergyOutflow : 2.4672412 [W]
rho max/avg/min : 1.2016458 1.1552853 1.0514373
T   max/avg/min : 335.59992 305.98749 293.69975
P   max/avg/min : 101324.91 101316.16 101307.42
Prg max/avg/min : 101325 101324.66 101322.82
U   max/avg/min : 0.093067855 0.043473391 -0.026095605
Prg max-min : 2.1822394
 
Iteration Number = 41

DILUPBiCG:  Solving for Ux, Initial residual = 0.040721243, Final residual = 2.2727652e-06, No Iterations 3
DILUPBiCG:  Solving for Uy, Initial residual = 0.0088293137, Final residual = 7.0668202e-07, No Iterations 3
DILUPBiCG:  Solving for Uz, Initial residual = 0.036695024, Final residual = 1.240524e-05, No Iterations 2
DILUPBiCG:  Solving for h, Initial residual = 0.009774691, Final residual = 8.0607291e-06, No Iterations 6
GAMG:  Solving for p_rgh, Initial residual = 0.022554279, Final residual = 1.0268424e-05, No Iterations 4
time step continuity errors : sum local = 0.00017466013, global = -3.9734135e-05, cumulative = 0.00033903781
ExecutionTime = 1.53 s  ClockTime = 2 s
Inflow      : 9.7035228e-06 [kg/s]
Outflow     : 9.6703845e-06 [kg/s]
EnergyInflow  : 2.8670242 [W]
EnergyOutflow : 2.8820339 [W]
rho max/avg/min : 1.2016458 1.1544304 1.0500136
T   max/avg/min : 336.05499 306.22798 293.69953
P   max/avg/min : 101324.91 101316.16 101307.42
Prg max/avg/min : 101325 101324.65 101322.8
U   max/avg/min : 0.099440704 0.046254921 -0.026034507
Prg max-min : 2.2025941
 
Iteration Number = 42

DILUPBiCG:  Solving for Ux, Initial residual = 0.046191957, Final residual = 3.7140373e-05, No Iterations 3
DILUPBiCG:  Solving for Uy, Initial residual = 0.0090422174, Final residual = 6.9653379e-07, No Iterations 3
DILUPBiCG:  Solving for Uz, Initial residual = 0.037549577, Final residual = 1.4801514e-05, No Iterations 2
DILUPBiCG:  Solving for h, Initial residual = 0.0093612491, Final residual = 9.3550495e-06, No Iterations 5
GAMG:  Solving for p_rgh, Initial residual = 0.019654174, Final residual = 5.8878248e-06, No Iterations 4
time step continuity errors : sum local = 9.3979117e-05, global = 3.8734912e-05, cumulative = 0.00037777272
ExecutionTime = 1.57 s  ClockTime = 2 s
Inflow      : 1.1115866e-05 [kg/s]
Outflow     : 1.1148171e-05 [kg/s]
EnergyInflow  : 3.2843183 [W]
EnergyOutflow : 3.3220555 [W]
rho max/avg/min : 1.2016459 1.1536017 1.0486181
T   max/avg/min : 336.50219 306.46196 293.69931
P   max/avg/min : 101324.91 101316.16 101307.42
Prg max/avg/min : 101325 101324.64 101322.78
U   max/avg/min : 0.10592763 0.049097622 -0.025728508
Prg max-min : 2.2222064
 
Iteration Number = 43

DILUPBiCG:  Solving for Ux, Initial residual = 0.038693023, Final residual = 2.1719444e-06, No Iterations 3
DILUPBiCG:  Solving for Uy, Initial residual = 0.0091741697, Final residual = 1.7503663e-06, No Iterations 3
DILUPBiCG:  Solving for Uz, Initial residual = 0.035821535, Final residual = 1.4626094e-05, No Iterations 2
DILUPBiCG:  Solving for h, Initial residual = 0.0089637036, Final residual = 2.1367907e-06, No Iterations 6
GAMG:  Solving for p_rgh, Initial residual = 0.020656295, Final residual = 1.3011255e-05, No Iterations 4
time step continuity errors : sum local = 0.00019677389, global = -1.9515302e-06, cumulative = 0.00037582119
ExecutionTime = 1.6 s  ClockTime = 2 s
Inflow      : 1.2874802e-05 [kg/s]
Outflow     : 1.2873175e-05 [kg/s]
EnergyInflow  : 3.8040174 [W]
EnergyOutflow : 3.835374 [W]
rho max/avg/min : 1.2016459 1.1528 1.0472495
T   max/avg/min : 336.94196 306.68917 293.69903
P   max/avg/min : 101324.91 101316.16 101307.42
Prg max/avg/min : 101325 101324.63 101322.76
U   max/avg/min : 0.11251434 0.052031024 -0.024814858
Prg max-min : 2.2445897
 
Iteration Number = 44

DILUPBiCG:  Solving for Ux, Initial residual = 0.044982677, Final residual = 1.586074e-06, No Iterations 4
DILUPBiCG:  Solving for Uy, Initial residual = 0.0095330398, Final residual = 4.9999216e-07, No Iterations 3
DILUPBiCG:  Solving for Uz, Initial residual = 0.037603034, Final residual = 1.9092873e-05, No Iterations 2
DILUPBiCG:  Solving for h, Initial residual = 0.0085805985, Final residual = 2.0291818e-06, No Iterations 6
GAMG:  Solving for p_rgh, Initial residual = 0.026427181, Final residual = 5.9451741e-06, No Iterations 4
time step continuity errors : sum local = 8.6393096e-05, global = 8.0102767e-06, cumulative = 0.00038383147
ExecutionTime = 1.64 s  ClockTime = 2 s
Inflow      : 1.4393653e-05 [kg/s]
Outflow     : 1.4400333e-05 [kg/s]
EnergyInflow  : 4.2527803 [W]
EnergyOutflow : 4.2903425 [W]
rho max/avg/min : 1.2016459 1.1520258 1.0459073
T   max/avg/min : 337.37435 306.90952 293.69871
P   max/avg/min : 101324.91 101316.16 101307.42
Prg max/avg/min : 101325 101324.63 101322.74
U   max/avg/min : 0.11917292 0.054919798 -0.024042629
Prg max-min : 2.2605653
 
Iteration Number = 45

DILUPBiCG:  Solving for Ux, Initial residual = 0.034436016, Final residual = 2.4768347e-06, No Iterations 3
DILUPBiCG:  Solving for Uy, Initial residual = 0.010181668, Final residual = 5.7558095e-07, No Iterations 3
DILUPBiCG:  Solving for Uz, Initial residual = 0.03180038, Final residual = 1.3701627e-05, No Iterations 2
DILUPBiCG:  Solving for h, Initial residual = 0.0082026953, Final residual = 2.4632562e-06, No Iterations 6
GAMG:  Solving for p_rgh, Initial residual = 0.026193374, Final residual = 2.5306909e-05, No Iterations 3
time step continuity errors : sum local = 0.00035998258, global = 0.00011772011, cumulative = 0.00050155158
ExecutionTime = 1.68 s  ClockTime = 2 s
Inflow      : 1.6035741e-05 [kg/s]
Outflow     : 1.613392e-05 [kg/s]
EnergyInflow  : 4.7379553 [W]
EnergyOutflow : 4.8065105 [W]
rho max/avg/min : 1.2016459 1.151279 1.0445911
T   max/avg/min : 337.79946 307.12301 293.69843
P   max/avg/min : 101324.91 101316.16 101307.42
Prg max/avg/min : 101325 101324.62 101322.71
U   max/avg/min : 0.12592185 0.057855196 -0.022905304
Prg max-min : 2.2847941
 
Iteration Number = 46

DILUPBiCG:  Solving for Ux, Initial residual = 0.036380089, Final residual = 2.4041795e-06, No Iterations 3
DILUPBiCG:  Solving for Uy, Initial residual = 0.010174206, Final residual = 5.2578711e-07, No Iterations 3
DILUPBiCG:  Solving for Uz, Initial residual = 0.035699986, Final residual = 1.9712578e-05, No Iterations 2
DILUPBiCG:  Solving for h, Initial residual = 0.0078400404, Final residual = 4.6450038e-06, No Iterations 5
GAMG:  Solving for p_rgh, Initial residual = 0.032751527, Final residual = 6.2739024e-06, No Iterations 4
time step continuity errors : sum local = 8.5560821e-05, global = 3.5122969e-05, cumulative = 0.00053667455
ExecutionTime = 1.71 s  ClockTime = 2 s
Inflow      : 1.7998642e-05 [kg/s]
Outflow     : 1.8027934e-05 [kg/s]
EnergyInflow  : 5.3179182 [W]
EnergyOutflow : 5.370505 [W]
rho max/avg/min : 1.2016459 1.1505592 1.0433001
T   max/avg/min : 338.21744 307.32962 293.69807
P   max/avg/min : 101324.91 101316.16 101307.42
Prg max/avg/min : 101325 101324.61 101322.7
U   max/avg/min : 0.13278333 0.060881192 -0.021399133
Prg max-min : 2.3026494
 
Iteration Number = 47

DILUPBiCG:  Solving for Ux, Initial residual = 0.029041438, Final residual = 1.923327e-06, No Iterations 3
DILUPBiCG:  Solving for Uy, Initial residual = 0.0096132185, Final residual = 5.1165702e-07, No Iterations 3
DILUPBiCG:  Solving for Uz, Initial residual = 0.032567707, Final residual = 1.7520405e-05, No Iterations 2
DILUPBiCG:  Solving for h, Initial residual = 0.0074716482, Final residual = 7.0788529e-06, No Iterations 5
GAMG:  Solving for p_rgh, Initial residual = 0.029685327, Final residual = 2.6411379e-05, No Iterations 3
time step continuity errors : sum local = 0.00034515091, global = 9.9961281e-05, cumulative = 0.00063663583
ExecutionTime = 1.75 s  ClockTime = 2 s
Inflow      : 1.9753355e-05 [kg/s]
Outflow     : 1.9836723e-05 [kg/s]
EnergyInflow  : 5.8363698 [W]
EnergyOutflow : 5.9093223 [W]
rho max/avg/min : 1.2016459 1.1498676 1.0420328
T   max/avg/min : 338.62876 307.52912 293.6977
P   max/avg/min : 101324.91 101316.16 101307.42
Prg max/avg/min : 101325 101324.61 101322.68
U   max/avg/min : 0.13970329 0.06385615 -0.019682308
Prg max-min : 2.322283
 
Iteration Number = 48

DILUPBiCG:  Solving for Ux, Initial residual = 0.029819333, Final residual = 6.6976789e-06, No Iterations 3
DILUPBiCG:  Solving for Uy, Initial residual = 0.0098167063, Final residual = 6.8827234e-07, No Iterations 3
DILUPBiCG:  Solving for Uz, Initial residual = 0.03142608, Final residual = 1.6540733e-05, No Iterations 2
DILUPBiCG:  Solving for h, Initial residual = 0.0071324227, Final residual = 2.1481677e-06, No Iterations 8
GAMG:  Solving for p_rgh, Initial residual = 0.031331554, Final residual = 1.514448e-05, No Iterations 4
time step continuity errors : sum local = 0.00018992107, global = 4.0084333e-05, cumulative = 0.00067672016
ExecutionTime = 1.79 s  ClockTime = 2 s
Inflow      : 2.15562e-05 [kg/s]
Outflow     : 2.158963e-05 [kg/s]
EnergyInflow  : 6.3690423 [W]
EnergyOutflow : 6.4316032 [W]
rho max/avg/min : 1.2016459 1.1492022 1.0407903
T   max/avg/min : 339.03302 307.72195 293.69734
P   max/avg/min : 101324.91 101316.16 101307.41
Prg max/avg/min : 101325 101324.6 101322.66
U   max/avg/min : 0.14671313 0.06686826 -0.017901834
Prg max-min : 2.3427633
 
Iteration Number = 49

DILUPBiCG:  Solving for Ux, Initial residual = 0.030185556, Final residual = 1.3898875e-06, No Iterations 3
DILUPBiCG:  Solving for Uy, Initial residual = 0.01137408, Final residual = 1.8836489e-06, No Iterations 3
DILUPBiCG:  Solving for Uz, Initial residual = 0.031295325, Final residual = 1.7480087e-05, No Iterations 2
DILUPBiCG:  Solving for h, Initial residual = 0.0068005877, Final residual = 3.5011449e-06, No Iterations 9
GAMG:  Solving for p_rgh, Initial residual = 0.029895756, Final residual = 2.5025992e-05, No Iterations 3
time step continuity errors : sum local = 0.00030413489, global = 8.0953695e-05, cumulative = 0.00075767386
ExecutionTime = 1.83 s  ClockTime = 2 s
Inflow      : 2.3528768e-05 [kg/s]
Outflow     : 2.3596283e-05 [kg/s]
EnergyInflow  : 6.9518616 [W]
EnergyOutflow : 7.0289537 [W]
rho max/avg/min : 1.2016459 1.1485637 1.0395708
T   max/avg/min : 339.43072 307.90789 293.69693
P   max/avg/min : 101324.91 101316.16 101307.41
Prg max/avg/min : 101325 101324.59 101322.64
U   max/avg/min : 0.15383791 0.069942251 -0.015458659
Prg max-min : 2.3630188
 
Iteration Number = 50

DILUPBiCG:  Solving for Ux, Initial residual = 0.024895775, Final residual = 1.5989638e-06, No Iterations 3
DILUPBiCG:  Solving for Uy, Initial residual = 0.011854903, Final residual = 7.7391414e-07, No Iterations 3
DILUPBiCG:  Solving for Uz, Initial residual = 0.03107809, Final residual = 1.6747523e-05, No Iterations 2
DILUPBiCG:  Solving for h, Initial residual = 0.0064747702, Final residual = 1.1242023e-06, No Iterations 8
GAMG:  Solving for p_rgh, Initial residual = 0.030885702, Final residual = 1.2775658e-05, No Iterations 4
time step continuity errors : sum local = 0.00014418219, global = 2.2927885e-05, cumulative = 0.00078060174
ExecutionTime = 1.86 s  ClockTime = 2 s
Inflow      : 2.5590432e-05 [kg/s]
Outflow     : 2.5609554e-05 [kg/s]
EnergyInflow  : 7.5610054 [W]
EnergyOutflow : 7.6281954 [W]
rho max/avg/min : 1.2016459 1.1479503 1.0383747
T   max/avg/min : 339.82171 308.08738 293.69651
P   max/avg/min : 101324.91 101316.15 101307.41
Prg max/avg/min : 101325 101324.59 101322.62
U   max/avg/min : 0.1611207 0.073072036 -0.012205324
Prg max-min : 2.3838537
 
Iteration Number = 51

DILUPBiCG:  Solving for Ux, Initial residual = 0.031741394, Final residual = 2.8766538e-05, No Iterations 2
DILUPBiCG:  Solving for Uy, Initial residual = 0.013055083, Final residual = 1.1971547e-06, No Iterations 3
DILUPBiCG:  Solving for Uz, Initial residual = 0.031229509, Final residual = 1.7866379e-05, No Iterations 2
DILUPBiCG:  Solving for h, Initial residual = 0.0061576304, Final residual = 1.7665539e-06, No Iterations 8
GAMG:  Solving for p_rgh, Initial residual = 0.031030143, Final residual = 1.5230119e-05, No Iterations 4
time step continuity errors : sum local = 0.00016164071, global = -2.2428356e-05, cumulative = 0.00075817339
ExecutionTime = 1.9 s  ClockTime = 2 s
Inflow      : 2.7429344e-05 [kg/s]
Outflow     : 2.7410639e-05 [kg/s]
EnergyInflow  : 8.1043343 [W]
EnergyOutflow : 8.1645129 [W]
rho max/avg/min : 1.2016459 1.1473614 1.0372012
T   max/avg/min : 340.20617 308.2605 293.69605
P   max/avg/min : 101324.91 101316.15 101307.41
Prg max/avg/min : 101325 101324.58 101322.6
U   max/avg/min : 0.16851039 0.076129517 -0.0089935149
Prg max-min : 2.3989356
 
Iteration Number = 52

DILUPBiCG:  Solving for Ux, Initial residual = 0.025426429, Final residual = 1.1589811e-06, No Iterations 3
DILUPBiCG:  Solving for Uy, Initial residual = 0.013630176, Final residual = 9.4160103e-07, No Iterations 3
DILUPBiCG:  Solving for Uz, Initial residual = 0.026977343, Final residual = 1.3402965e-05, No Iterations 2
DILUPBiCG:  Solving for h, Initial residual = 0.0058678677, Final residual = 4.9422254e-06, No Iterations 7
GAMG:  Solving for p_rgh, Initial residual = 0.045470938, Final residual = 4.0202859e-05, No Iterations 3
time step continuity errors : sum local = 0.00039964193, global = 0.00012972244, cumulative = 0.00088789583
ExecutionTime = 1.94 s  ClockTime = 2 s
Inflow      : 2.9053695e-05 [kg/s]
Outflow     : 2.9161883e-05 [kg/s]
EnergyInflow  : 8.5842686 [W]
EnergyOutflow : 8.6859469 [W]
rho max/avg/min : 1.2016458 1.1467959 1.0360493
T   max/avg/min : 340.58444 308.42757 293.69562
P   max/avg/min : 101324.91 101316.15 101307.4
Prg max/avg/min : 101325 101324.58 101322.58
U   max/avg/min : 0.17602097 0.079123738 -0.005285869
Prg max-min : 2.4191897
 
Iteration Number = 53

DILUPBiCG:  Solving for Ux, Initial residual = 0.028199274, Final residual = 2.7026038e-05, No Iterations 2
DILUPBiCG:  Solving for Uy, Initial residual = 0.013638749, Final residual = 8.2679344e-07, No Iterations 3
DILUPBiCG:  Solving for Uz, Initial residual = 0.02714465, Final residual = 1.403069e-05, No Iterations 2
DILUPBiCG:  Solving for h, Initial residual = 0.0055855496, Final residual = 3.457836e-06, No Iterations 7
GAMG:  Solving for p_rgh, Initial residual = 0.024161833, Final residual = 2.7855853e-06, No Iterations 4
time step continuity errors : sum local = 2.6628333e-05, global = -8.1757159e-06, cumulative = 0.00087972012
ExecutionTime = 1.97 s  ClockTime = 2 s
Inflow      : 3.0788706e-05 [kg/s]
Outflow     : 3.0781887e-05 [kg/s]
EnergyInflow  : 9.0968988 [W]
EnergyOutflow : 9.1684458 [W]
rho max/avg/min : 1.2016458 1.1462518 1.0349198
T   max/avg/min : 340.95612 308.58899 293.69515
P   max/avg/min : 101324.91 101316.15 101307.4
Prg max/avg/min : 101325 101324.57 101322.56
U   max/avg/min : 0.18354563 0.082129281 -0.0015914673
Prg max-min : 2.4369675
 
Iteration Number = 54

DILUPBiCG:  Solving for Ux, Initial residual = 0.027393477, Final residual = 1.2587988e-06, No Iterations 3
DILUPBiCG:  Solving for Uy, Initial residual = 0.014032589, Final residual = 1.4798077e-06, No Iterations 3
DILUPBiCG:  Solving for Uz, Initial residual = 0.025817065, Final residual = 1.3084137e-05, No Iterations 2
DILUPBiCG:  Solving for h, Initial residual = 0.0053182056, Final residual = 2.7413482e-06, No Iterations 6
GAMG:  Solving for p_rgh, Initial residual = 0.017698552, Final residual = 6.0732122e-06, No Iterations 4
time step continuity errors : sum local = 5.7011379e-05, global = -9.0782812e-06, cumulative = 0.00087064184
ExecutionTime = 2.01 s  ClockTime = 2 s
Inflow      : 3.2135747e-05 [kg/s]
Outflow     : 3.2128176e-05 [kg/s]
EnergyInflow  : 9.4948986 [W]
EnergyOutflow : 9.5696208 [W]
rho max/avg/min : 1.2016458 1.145729 1.0338108
T   max/avg/min : 341.32187 308.74485 293.69467
P   max/avg/min : 101324.91 101316.15 101307.41
Prg max/avg/min : 101325 101324.57 101322.55
U   max/avg/min : 0.19118371 0.084992421 0
Prg max-min : 2.4498123
 
Iteration Number = 55

DILUPBiCG:  Solving for Ux, Initial residual = 0.028337425, Final residual = 1.082046e-06, No Iterations 3
DILUPBiCG:  Solving for Uy, Initial residual = 0.014979105, Final residual = 1.1166755e-05, No Iterations 3
DILUPBiCG:  Solving for Uz, Initial residual = 0.021330537, Final residual = 9.2521169e-06, No Iterations 2
DILUPBiCG:  Solving for h, Initial residual = 0.005072615, Final residual = 1.8036232e-06, No Iterations 6
GAMG:  Solving for p_rgh, Initial residual = 0.0168007, Final residual = 6.413442e-06, No Iterations 4
time step continuity errors : sum local = 5.9101716e-05, global = 1.6852547e-05, cumulative = 0.00088749438
ExecutionTime = 2.05 s  ClockTime = 2 s
Inflow      : 3.3529612e-05 [kg/s]
Outflow     : 3.3543667e-05 [kg/s]
EnergyInflow  : 9.9067329 [W]
EnergyOutflow : 9.9909501 [W]
rho max/avg/min : 1.2016458 1.1452256 1.0327225
T   max/avg/min : 341.68158 308.89553 293.6942
P   max/avg/min : 101324.91 101316.15 101307.4
Prg max/avg/min : 101325 101324.56 101322.53
U   max/avg/min : 0.19890745 0.087860368 0
Prg max-min : 2.4731454
 
Iteration Number = 56

DILUPBiCG:  Solving for Ux, Initial residual = 0.025458576, Final residual = 9.3940563e-07, No Iterations 3
DILUPBiCG:  Solving for Uy, Initial residual = 0.01495291, Final residual = 1.5785694e-06, No Iterations 3
DILUPBiCG:  Solving for Uz, Initial residual = 0.024392277, Final residual = 1.2258944e-05, No Iterations 2
DILUPBiCG:  Solving for h, Initial residual = 0.0048295373, Final residual = 1.2794245e-06, No Iterations 6
GAMG:  Solving for p_rgh, Initial residual = 0.015264063, Final residual = 2.8616566e-06, No Iterations 4
time step continuity errors : sum local = 2.6097443e-05, global = -9.7426853e-06, cumulative = 0.0008777517
ExecutionTime = 2.09 s  ClockTime = 3 s
Inflow      : 3.4896993e-05 [kg/s]
Outflow     : 3.4888868e-05 [kg/s]
EnergyInflow  : 10.310742 [W]
EnergyOutflow : 10.391148 [W]
rho max/avg/min : 1.2016458 1.1447403 1.0316545
T   max/avg/min : 342.03526 309.04131 293.69369
P   max/avg/min : 101324.91 101316.15 101307.4
Prg max/avg/min : 101325 101324.56 101322.51
U   max/avg/min : 0.20670123 0.090713103 0
Prg max-min : 2.4845568
 
Iteration Number = 57

DILUPBiCG:  Solving for Ux, Initial residual = 0.024925778, Final residual = 9.8366462e-07, No Iterations 3
DILUPBiCG:  Solving for Uy, Initial residual = 0.016547848, Final residual = 8.8587007e-06, No Iterations 3
DILUPBiCG:  Solving for Uz, Initial residual = 0.019986437, Final residual = 8.6259156e-06, No Iterations 2
DILUPBiCG:  Solving for h, Initial residual = 0.004592788, Final residual = 4.5650984e-06, No Iterations 5
GAMG:  Solving for p_rgh, Initial residual = 0.014131926, Final residual = 2.8753852e-06, No Iterations 4
time step continuity errors : sum local = 2.580287e-05, global = 7.800054e-06, cumulative = 0.00088555175
ExecutionTime = 2.13 s  ClockTime = 3 s
Inflow      : 3.5996168e-05 [kg/s]
Outflow     : 3.6002673e-05 [kg/s]
EnergyInflow  : 10.635507 [W]
EnergyOutflow : 10.722566 [W]
rho max/avg/min : 1.2016458 1.1442723 1.0306077
T   max/avg/min : 342.38268 309.18245 293.69319
P   max/avg/min : 101324.91 101316.15 101307.4
Prg max/avg/min : 101325 101324.56 101322.5
U   max/avg/min : 0.21451827 0.093434051 0
Prg max-min : 2.5015101
 
Iteration Number = 58

DILUPBiCG:  Solving for Ux, Initial residual = 0.02455486, Final residual = 1.1803391e-06, No Iterations 3
DILUPBiCG:  Solving for Uy, Initial residual = 0.016320064, Final residual = 1.2826303e-05, No Iterations 3
DILUPBiCG:  Solving for Uz, Initial residual = 0.019433611, Final residual = 8.8113152e-06, No Iterations 2
DILUPBiCG:  Solving for h, Initial residual = 0.0043714471, Final residual = 3.2968298e-06, No Iterations 5
GAMG:  Solving for p_rgh, Initial residual = 0.012632844, Final residual = 6.8191858e-06, No Iterations 4
time step continuity errors : sum local = 6.0801277e-05, global = -1.071498e-05, cumulative = 0.00087483677
ExecutionTime = 2.16 s  ClockTime = 3 s
Inflow      : 3.6945836e-05 [kg/s]
Outflow     : 3.69369e-05 [kg/s]
EnergyInflow  : 10.916098 [W]
EnergyOutflow : 11.000593 [W]
rho max/avg/min : 1.2016458 1.1438204 1.0295801
T   max/avg/min : 342.7244 309.3192 293.69269
P   max/avg/min : 101324.91 101316.15 101307.4
Prg max/avg/min : 101325 101324.55 101322.48
U   max/avg/min : 0.22235685 0.09607027 0
Prg max-min : 2.5141223
 
Iteration Number = 59

DILUPBiCG:  Solving for Ux, Initial residual = 0.023811566, Final residual = 8.7330463e-07, No Iterations 3
DILUPBiCG:  Solving for Uy, Initial residual = 0.016458947, Final residual = 1.0791727e-05, No Iterations 3
DILUPBiCG:  Solving for Uz, Initial residual = 0.016843552, Final residual = 6.8896998e-06, No Iterations 2
DILUPBiCG:  Solving for h, Initial residual = 0.0041627168, Final residual = 2.7879865e-06, No Iterations 5
GAMG:  Solving for p_rgh, Initial residual = 0.01222536, Final residual = 3.852218e-06, No Iterations 4
time step continuity errors : sum local = 3.4103384e-05, global = 8.6094426e-06, cumulative = 0.00088344621
ExecutionTime = 2.2 s  ClockTime = 3 s
Inflow      : 3.7768772e-05 [kg/s]
Outflow     : 3.7775952e-05 [kg/s]
EnergyInflow  : 11.159244 [W]
EnergyOutflow : 11.250282 [W]
rho max/avg/min : 1.2016458 1.1433837 1.0285705
T   max/avg/min : 343.06082 309.45176 293.6922
P   max/avg/min : 101324.91 101316.15 101307.4
Prg max/avg/min : 101325 101324.55 101322.47
U   max/avg/min : 0.23020603 0.09862433 0
Prg max-min : 2.530307
 
Iteration Number = 60

DILUPBiCG:  Solving for Ux, Initial residual = 0.023683287, Final residual = 2.1379336e-05, No Iterations 2
DILUPBiCG:  Solving for Uy, Initial residual = 0.015510634, Final residual = 1.873545e-06, No Iterations 3
DILUPBiCG:  Solving for Uz, Initial residual = 0.016479557, Final residual = 7.1087537e-06, No Iterations 2
DILUPBiCG:  Solving for h, Initial residual = 0.003967007, Final residual = 2.4506516e-06, No Iterations 5
GAMG:  Solving for p_rgh, Initial residual = 0.011938778, Final residual = 8.9103528e-06, No Iterations 4
time step continuity errors : sum local = 7.8631366e-05, global = -7.3621094e-06, cumulative = 0.0008760841
ExecutionTime = 2.23 s  ClockTime = 3 s
Inflow      : 3.8499088e-05 [kg/s]
Outflow     : 3.8492948e-05 [kg/s]
EnergyInflow  : 11.375025 [W]
EnergyOutflow : 11.463765 [W]
rho max/avg/min : 1.2016458 1.142962 1.0275807
T   max/avg/min : 343.39126 309.58018 293.69171
P   max/avg/min : 101324.91 101316.15 101307.4
Prg max/avg/min : 101325 101324.55 101322.45
U   max/avg/min : 0.2380508 0.10111381 0
Prg max-min : 2.5429464
 
Iteration Number = 61

DILUPBiCG:  Solving for Ux, Initial residual = 0.022606466, Final residual = 1.5142363e-06, No Iterations 3
DILUPBiCG:  Solving for Uy, Initial residual = 0.015881047, Final residual = 8.0955825e-07, No Iterations 3
DILUPBiCG:  Solving for Uz, Initial residual = 0.014676463, Final residual = 5.9195235e-06, No Iterations 2
DILUPBiCG:  Solving for h, Initial residual = 0.0037837682, Final residual = 3.157119e-06, No Iterations 5
GAMG:  Solving for p_rgh, Initial residual = 0.011581025, Final residual = 1.8526735e-06, No Iterations 4
time step continuity errors : sum local = 1.6285926e-05, global = 8.0280154e-06, cumulative = 0.00088411212
ExecutionTime = 2.27 s  ClockTime = 3 s
Inflow      : 3.9142292e-05 [kg/s]
Outflow     : 3.9148987e-05 [kg/s]
EnergyInflow  : 11.565068 [W]
EnergyOutflow : 11.659177 [W]
rho max/avg/min : 1.2016458 1.1425547 1.02661
T   max/avg/min : 343.71596 309.70458 293.69123
P   max/avg/min : 101324.91 101316.15 101307.4
Prg max/avg/min : 101325 101324.54 101322.44
U   max/avg/min : 0.2458671 0.10353076 0
Prg max-min : 2.5578909
 
Iteration Number = 62

DILUPBiCG:  Solving for Ux, Initial residual = 0.022203555, Final residual = 1.9021086e-05, No Iterations 2
DILUPBiCG:  Solving for Uy, Initial residual = 0.015031438, Final residual = 3.8824223e-06, No Iterations 3
DILUPBiCG:  Solving for Uz, Initial residual = 0.014198281, Final residual = 5.9248265e-06, No Iterations 2
DILUPBiCG:  Solving for h, Initial residual = 0.0036134054, Final residual = 2.9985825e-06, No Iterations 5
GAMG:  Solving for p_rgh, Initial residual = 0.011228637, Final residual = 8.8703816e-06, No Iterations 4
time step continuity errors : sum local = 7.7820699e-05, global = -3.7013381e-07, cumulative = 0.00088374199
ExecutionTime = 2.31 s  ClockTime = 3 s
Inflow      : 3.9726389e-05 [kg/s]
Outflow     : 3.972608e-05 [kg/s]
EnergyInflow  : 11.737646 [W]
EnergyOutflow : 11.831243 [W]
rho max/avg/min : 1.2016458 1.1421616 1.0256575
T   max/avg/min : 344.03516 309.82504 293.69077
P   max/avg/min : 101324.91 101316.15 101307.4
Prg max/avg/min : 101325 101324.54 101322.43
U   max/avg/min : 0.25363914 0.1058935 0
Prg max-min : 2.5707078
 
Iteration Number = 63

DILUPBiCG:  Solving for Ux, Initial residual = 0.021274198, Final residual = 1.7618024e-05, No Iterations 2
DILUPBiCG:  Solving for Uy, Initial residual = 0.013994015, Final residual = 1.5744992e-06, No Iterations 3
DILUPBiCG:  Solving for Uz, Initial residual = 0.013073007, Final residual = 5.268077e-06, No Iterations 2
DILUPBiCG:  Solving for h, Initial residual = 0.0034544619, Final residual = 2.3051708e-06, No Iterations 5
GAMG:  Solving for p_rgh, Initial residual = 0.010911546, Final residual = 1.9570148e-06, No Iterations 4
time step continuity errors : sum local = 1.7129902e-05, global = -6.6908705e-06, cumulative = 0.00087705111
ExecutionTime = 2.34 s  ClockTime = 3 s
Inflow      : 4.0263715e-05 [kg/s]
Outflow     : 4.0258134e-05 [kg/s]
EnergyInflow  : 11.896406 [W]
EnergyOutflow : 11.990014 [W]
rho max/avg/min : 1.2016458 1.1417822 1.0247228
T   max/avg/min : 344.34898 309.94163 293.69032
P   max/avg/min : 101324.91 101316.15 101307.4
Prg max/avg/min : 101325 101324.54 101322.41
U   max/avg/min : 0.26134517 0.10819751 0
Prg max-min : 2.5847238
 
Iteration Number = 64

DILUPBiCG:  Solving for Ux, Initial residual = 0.02054983, Final residual = 1.5593397e-05, No Iterations 2
DILUPBiCG:  Solving for Uy, Initial residual = 0.014287946, Final residual = 1.0501623e-06, No Iterations 3
DILUPBiCG:  Solving for Uz, Initial residual = 0.012576444, Final residual = 5.174055e-06, No Iterations 2
DILUPBiCG:  Solving for h, Initial residual = 0.0033067494, Final residual = 2.0369835e-06, No Iterations 5
GAMG:  Solving for p_rgh, Initial residual = 0.010466969, Final residual = 3.9900295e-06, No Iterations 4
time step continuity errors : sum local = 3.4884839e-05, global = -1.0878192e-05, cumulative = 0.00086617292
ExecutionTime = 2.38 s  ClockTime = 3 s
Inflow      : 4.07517e-05 [kg/s]
Outflow     : 4.0742628e-05 [kg/s]
EnergyInflow  : 12.040587 [W]
EnergyOutflow : 12.134754 [W]
rho max/avg/min : 1.2016458 1.1414162 1.0238056
T   max/avg/min : 344.65747 310.05445 293.68989
P   max/avg/min : 101324.91 101316.16 101307.4
Prg max/avg/min : 101325 101324.53 101322.4
U   max/avg/min : 0.26897875 0.11045191 0
Prg max-min : 2.5973759
 
Iteration Number = 65

DILUPBiCG:  Solving for Ux, Initial residual = 0.020093188, Final residual = 1.5561221e-05, No Iterations 2
DILUPBiCG:  Solving for Uy, Initial residual = 0.013741785, Final residual = 2.1218858e-06, No Iterations 3
DILUPBiCG:  Solving for Uz, Initial residual = 0.011796174, Final residual = 4.7398702e-06, No Iterations 2
DILUPBiCG:  Solving for h, Initial residual = 0.0031685484, Final residual = 2.2945067e-06, No Iterations 5
GAMG:  Solving for p_rgh, Initial residual = 0.01006557, Final residual = 2.9438064e-06, No Iterations 4
time step continuity errors : sum local = 2.5696826e-05, global = 9.6124776e-06, cumulative = 0.0008757854
ExecutionTime = 2.42 s  ClockTime = 3 s
Inflow      : 4.1202979e-05 [kg/s]
Outflow     : 4.1210995e-05 [kg/s]
EnergyInflow  : 12.173923 [W]
EnergyOutflow : 12.274751 [W]
rho max/avg/min : 1.2016458 1.1410634 1.0229061
T   max/avg/min : 344.96056 310.16356 293.68949
P   max/avg/min : 101324.91 101316.16 101307.4
Prg max/avg/min : 101325 101324.53 101322.39
U   max/avg/min : 0.27654641 0.11266222 0
Prg max-min : 2.6110505
 
Iteration Number = 66

DILUPBiCG:  Solving for Ux, Initial residual = 0.019343401, Final residual = 1.4245877e-05, No Iterations 2
DILUPBiCG:  Solving for Uy, Initial residual = 0.013843956, Final residual = 1.7447363e-06, No Iterations 3
DILUPBiCG:  Solving for Uz, Initial residual = 0.011477367, Final residual = 4.7332935e-06, No Iterations 2
DILUPBiCG:  Solving for h, Initial residual = 0.0030389946, Final residual = 2.0339234e-06, No Iterations 5
GAMG:  Solving for p_rgh, Initial residual = 0.0096090583, Final residual = 3.1116383e-06, No Iterations 4
time step continuity errors : sum local = 2.7143277e-05, global = -9.2716007e-06, cumulative = 0.0008665138
ExecutionTime = 2.46 s  ClockTime = 3 s
Inflow      : 4.1627722e-05 [kg/s]
Outflow     : 4.1619989e-05 [kg/s]
EnergyInflow  : 12.299418 [W]
EnergyOutflow : 12.397208 [W]
rho max/avg/min : 1.2016458 1.1407234 1.0220235
T   max/avg/min : 345.25844 310.26905 293.68911
P   max/avg/min : 101324.91 101316.16 101307.4
Prg max/avg/min : 101325 101324.53 101322.37
U   max/avg/min : 0.2840332 0.11482229 0
Prg max-min : 2.6227857
 
Iteration Number = 67

DILUPBiCG:  Solving for Ux, Initial residual = 0.018761173, Final residual = 1.4401709e-05, No Iterations 2
DILUPBiCG:  Solving for Uy, Initial residual = 0.01408748, Final residual = 7.1320321e-07, No Iterations 3
DILUPBiCG:  Solving for Uz, Initial residual = 0.010722527, Final residual = 4.2690824e-06, No Iterations 2
DILUPBiCG:  Solving for h, Initial residual = 0.0029173082, Final residual = 2.0291044e-06, No Iterations 5
GAMG:  Solving for p_rgh, Initial residual = 0.009180933, Final residual = 2.1108434e-06, No Iterations 4
time step continuity errors : sum local = 1.8391991e-05, global = 1.2451331e-05, cumulative = 0.00087896513
ExecutionTime = 2.49 s  ClockTime = 3 s
Inflow      : 4.2008476e-05 [kg/s]
Outflow     : 4.2018861e-05 [kg/s]
EnergyInflow  : 12.411917 [W]
EnergyOutflow : 12.516676 [W]
rho max/avg/min : 1.2016458 1.1403957 1.0211581
T   max/avg/min : 345.55105 310.371 293.68876
P   max/avg/min : 101324.91 101316.16 101307.4
Prg max/avg/min : 101325 101324.53 101322.36
U   max/avg/min : 0.29141797 0.11693888 0
Prg max-min : 2.6362293
 
Iteration Number = 68

DILUPBiCG:  Solving for Ux, Initial residual = 0.018006355, Final residual = 1.3562085e-05, No Iterations 2
DILUPBiCG:  Solving for Uy, Initial residual = 0.01480365, Final residual = 1.0941651e-06, No Iterations 3
DILUPBiCG:  Solving for Uz, Initial residual = 0.010503031, Final residual = 4.3211933e-06, No Iterations 2
DILUPBiCG:  Solving for h, Initial residual = 0.0028024063, Final residual = 2.4274515e-06, No Iterations 5
GAMG:  Solving for p_rgh, Initial residual = 0.0087510613, Final residual = 2.7041734e-06, No Iterations 4
time step continuity errors : sum local = 2.3547611e-05, global = -1.4767026e-05, cumulative = 0.0008641981
ExecutionTime = 2.52 s  ClockTime = 3 s
Inflow      : 4.2391754e-05 [kg/s]
Outflow     : 4.2379438e-05 [kg/s]
EnergyInflow  : 12.525161 [W]
EnergyOutflow : 12.62482 [W]
rho max/avg/min : 1.2016458 1.1400802 1.0203094
T   max/avg/min : 345.83848 310.46951 293.68843
P   max/avg/min : 101324.91 101316.16 101307.4
Prg max/avg/min : 101325 101324.52 101322.35
U   max/avg/min : 0.29868982 0.11901538 0
Prg max-min : 2.647622
 
Iteration Number = 69

DILUPBiCG:  Solving for Ux, Initial residual = 0.017227469, Final residual = 1.3278823e-05, No Iterations 2
DILUPBiCG:  Solving for Uy, Initial residual = 0.014610876, Final residual = 6.8721934e-06, No Iterations 3
DILUPBiCG:  Solving for Uz, Initial residual = 0.0099573923, Final residual = 3.973986e-06, No Iterations 2
DILUPBiCG:  Solving for h, Initial residual = 0.0026937571, Final residual = 2.0514566e-06, No Iterations 5
GAMG:  Solving for p_rgh, Initial residual = 0.0083692802, Final residual = 2.2620073e-06, No Iterations 4
time step continuity errors : sum local = 1.9676647e-05, global = 1.9606097e-06, cumulative = 0.00086615871
ExecutionTime = 2.56 s  ClockTime = 3 s
Inflow      : 4.2702781e-05 [kg/s]
Outflow     : 4.2704416e-05 [kg/s]
EnergyInflow  : 12.617058 [W]
EnergyOutflow : 12.722431 [W]
rho max/avg/min : 1.2016458 1.1397764 1.0194774
T   max/avg/min : 346.12071 310.56463 293.68813
P   max/avg/min : 101324.91 101316.16 101307.4
Prg max/avg/min : 101325 101324.52 101322.34
U   max/avg/min : 0.30606179 0.12103979 0
Prg max-min : 2.6598311
 
Iteration Number = 70

DILUPBiCG:  Solving for Ux, Initial residual = 0.016745355, Final residual = 1.2864546e-05, No Iterations 2
DILUPBiCG:  Solving for Uy, Initial residual = 0.015361149, Final residual = 2.8623663e-06, No Iterations 3
DILUPBiCG:  Solving for Uz, Initial residual = 0.0094818606, Final residual = 3.8418404e-06, No Iterations 2
DILUPBiCG:  Solving for h, Initial residual = 0.0025914164, Final residual = 2.0193476e-06, No Iterations 6
GAMG:  Solving for p_rgh, Initial residual = 0.0080022255, Final residual = 1.9247658e-06, No Iterations 4
time step continuity errors : sum local = 1.6723663e-05, global = -1.0318926e-06, cumulative = 0.00086512682
ExecutionTime = 2.6 s  ClockTime = 3 s
Inflow      : 4.3026067e-05 [kg/s]
Outflow     : 4.3025206e-05 [kg/s]
EnergyInflow  : 12.712576 [W]
EnergyOutflow : 12.818784 [W]
rho max/avg/min : 1.2016458 1.1394844 1.0186624
T   max/avg/min : 346.39765 310.65635 293.68784
P   max/avg/min : 101324.91 101316.16 101307.4
Prg max/avg/min : 101325 101324.52 101322.33
U   max/avg/min : 0.31341466 0.12303004 0
Prg max-min : 2.6717004
 
Iteration Number = 71

DILUPBiCG:  Solving for Ux, Initial residual = 0.015993068, Final residual = 1.2493279e-05, No Iterations 2
DILUPBiCG:  Solving for Uy, Initial residual = 0.015440098, Final residual = 3.5323461e-08, No Iterations 4
DILUPBiCG:  Solving for Uz, Initial residual = 0.0093220364, Final residual = 3.7596212e-06, No Iterations 2
DILUPBiCG:  Solving for h, Initial residual = 0.0024937493, Final residual = 2.0739803e-08, No Iterations 8
[...]
Prg max-min : 2.9747968
 
Iteration Number = 1983

DILUPBiCG:  Solving for Ux, Initial residual = 5.1667048e-05, Final residual = 2.330977e-09, No Iterations 3
DILUPBiCG:  Solving for Uy, Initial residual = 0.016794241, Final residual = 8.7222039e-07, No Iterations 3
DILUPBiCG:  Solving for Uz, Initial residual = 0.00012152685, Final residual = 1.7246902e-09, No Iterations 3
DILUPBiCG:  Solving for h, Initial residual = 1.8477642e-06, Final residual = 1.8360132e-09, No Iterations 5
GAMG:  Solving for p_rgh, Initial residual = 1.2542356e-05, Final residual = 9.3374067e-09, No Iterations 4
time step continuity errors : sum local = 4.991549e-08, global = -8.5786388e-09, cumulative = 0.00080265889
ExecutionTime = 75.64 s  ClockTime = 76 s
Inflow      : 0.00012090804 [kg/s]
Outflow     : 0.00012090803 [kg/s]
EnergyInflow  : 35.723755 [W]
EnergyOutflow : 35.886747 [W]
rho max/avg/min : 1.2016457 1.1396613 0.99812261
T   max/avg/min : 353.52589 310.8645 293.68537
P   max/avg/min : 101324.89 101316.14 101307.39
Prg max/avg/min : 101324.98 101324.49 101322.01
U   max/avg/min : 0.84380092 0.30218783 0
Prg max-min : 2.9747935
 
Iteration Number = 1984

DILUPBiCG:  Solving for Ux, Initial residual = 5.1898707e-05, Final residual = 2.3081205e-09, No Iterations 3
DILUPBiCG:  Solving for Uy, Initial residual = 0.017334965, Final residual = 7.7856718e-07, No Iterations 3
DILUPBiCG:  Solving for Uz, Initial residual = 0.0001218708, Final residual = 1.7317439e-09, No Iterations 3
DILUPBiCG:  Solving for h, Initial residual = 1.8468631e-06, Final residual = 1.6008903e-09, No Iterations 6
GAMG:  Solving for p_rgh, Initial residual = 1.2510687e-05, Final residual = 8.7185198e-09, No Iterations 4
time step continuity errors : sum local = 4.6480168e-08, global = 6.2438706e-09, cumulative = 0.00080266514
ExecutionTime = 75.68 s  ClockTime = 76 s
Inflow      : 0.00012093592 [kg/s]
Outflow     : 0.00012093592 [kg/s]
EnergyInflow  : 35.731992 [W]
EnergyOutflow : 35.894988 [W]
rho max/avg/min : 1.2016457 1.1396618 0.99812283
T   max/avg/min : 353.52582 310.86434 293.68537
P   max/avg/min : 101324.89 101316.14 101307.39
Prg max/avg/min : 101324.98 101324.49 101322.01
U   max/avg/min : 0.84380664 0.30220967 0
Prg max-min : 2.9747901
 
Iteration Number = 1985

DILUPBiCG:  Solving for Ux, Initial residual = 5.1561516e-05, Final residual = 2.0414427e-09, No Iterations 3
DILUPBiCG:  Solving for Uy, Initial residual = 0.01746679, Final residual = 1.2280188e-06, No Iterations 3
DILUPBiCG:  Solving for Uz, Initial residual = 0.00012150621, Final residual = 1.7242382e-09, No Iterations 3
DILUPBiCG:  Solving for h, Initial residual = 1.8459999e-06, Final residual = 1.8360786e-09, No Iterations 5
GAMG:  Solving for p_rgh, Initial residual = 1.2526711e-05, Final residual = 7.9026304e-09, No Iterations 4
time step continuity errors : sum local = 4.3178544e-08, global = 8.6688505e-10, cumulative = 0.00080266601
ExecutionTime = 75.73 s  ClockTime = 76 s
Inflow      : 0.00012096382 [kg/s]
Outflow     : 0.00012096382 [kg/s]
EnergyInflow  : 35.740235 [W]
EnergyOutflow : 35.90323 [W]
rho max/avg/min : 1.2016457 1.1396624 0.99812306
T   max/avg/min : 353.52574 310.86418 293.68537
P   max/avg/min : 101324.89 101316.14 101307.39
Prg max/avg/min : 101324.98 101324.49 101322.01
U   max/avg/min : 0.84381235 0.30223149 0
Prg max-min : 2.9747867
 
Iteration Number = 1986

DILUPBiCG:  Solving for Ux, Initial residual = 5.1771448e-05, Final residual = 2.8308822e-09, No Iterations 3
DILUPBiCG:  Solving for Uy, Initial residual = 0.017373151, Final residual = 1.5553684e-06, No Iterations 3
DILUPBiCG:  Solving for Uz, Initial residual = 0.00012180337, Final residual = 1.729652e-09, No Iterations 3
DILUPBiCG:  Solving for h, Initial residual = 1.845118e-06, Final residual = 1.8323845e-09, No Iterations 5
GAMG:  Solving for p_rgh, Initial residual = 1.2492321e-05, Final residual = 8.224527e-09, No Iterations 4
time step continuity errors : sum local = 4.4222639e-08, global = 9.0770615e-09, cumulative = 0.00080267508
ExecutionTime = 75.76 s  ClockTime = 76 s
Inflow      : 0.00012099168 [kg/s]
Outflow     : 0.00012099169 [kg/s]
EnergyInflow  : 35.748469 [W]
EnergyOutflow : 35.911466 [W]
rho max/avg/min : 1.2016457 1.1396629 0.99812328
T   max/avg/min : 353.52566 310.86403 293.68537
P   max/avg/min : 101324.89 101316.14 101307.39
Prg max/avg/min : 101324.98 101324.49 101322.01
U   max/avg/min : 0.84381806 0.30225331 0
Prg max-min : 2.9747834
 
Iteration Number = 1987

DILUPBiCG:  Solving for Ux, Initial residual = 5.1536835e-05, Final residual = 1.8738498e-09, No Iterations 3
DILUPBiCG:  Solving for Uy, Initial residual = 0.018629159, Final residual = 1.365076e-06, No Iterations 3
DILUPBiCG:  Solving for Uz, Initial residual = 0.00012149202, Final residual = 1.7238124e-09, No Iterations 3
DILUPBiCG:  Solving for h, Initial residual = 1.8442585e-06, Final residual = 3.7265067e-10, No Iterations 6
GAMG:  Solving for p_rgh, Initial residual = 1.2512269e-05, Final residual = 6.7301459e-09, No Iterations 4
time step continuity errors : sum local = 3.8239229e-08, global = 6.4150836e-09, cumulative = 0.0008026815
ExecutionTime = 75.8 s  ClockTime = 76 s
Inflow      : 0.00012101956 [kg/s]
Outflow     : 0.00012101956 [kg/s]
EnergyInflow  : 35.756705 [W]
EnergyOutflow : 35.919702 [W]
rho max/avg/min : 1.2016457 1.1396635 0.9981235
T   max/avg/min : 353.52558 310.86387 293.68537
P   max/avg/min : 101324.89 101316.14 101307.39
Prg max/avg/min : 101324.98 101324.49 101322.01
U   max/avg/min : 0.84382378 0.30227511 0
Prg max-min : 2.97478
 
Iteration Number = 1988

DILUPBiCG:  Solving for Ux, Initial residual = 5.1626868e-05, Final residual = 2.426115e-09, No Iterations 3
DILUPBiCG:  Solving for Uy, Initial residual = 0.018123706, Final residual = 5.6117735e-07, No Iterations 3
DILUPBiCG:  Solving for Uz, Initial residual = 0.00012174072, Final residual = 1.7283872e-09, No Iterations 3
DILUPBiCG:  Solving for h, Initial residual = 1.8434103e-06, Final residual = 1.8369551e-09, No Iterations 5
GAMG:  Solving for p_rgh, Initial residual = 1.248053e-05, Final residual = 8.2285197e-09, No Iterations 4
time step continuity errors : sum local = 4.4197836e-08, global = 1.1253846e-08, cumulative = 0.00080269275
ExecutionTime = 75.84 s  ClockTime = 76 s
Inflow      : 0.00012104741 [kg/s]
Outflow     : 0.00012104742 [kg/s]
EnergyInflow  : 35.764933 [W]
EnergyOutflow : 35.927931 [W]
rho max/avg/min : 1.2016457 1.139664 0.99812372
T   max/avg/min : 353.5255 310.86371 293.68537
P   max/avg/min : 101324.89 101316.14 101307.39
Prg max/avg/min : 101324.98 101324.49 101322.01
U   max/avg/min : 0.84382949 0.30229692 0
Prg max-min : 2.9747767
 
Iteration Number = 1989

DILUPBiCG:  Solving for Ux, Initial residual = 5.1629094e-05, Final residual = 2.2495893e-09, No Iterations 3
DILUPBiCG:  Solving for Uy, Initial residual = 0.018500227, Final residual = 2.1571984e-06, No Iterations 3
DILUPBiCG:  Solving for Uz, Initial residual = 0.00012146989, Final residual = 1.7229523e-09, No Iterations 3
DILUPBiCG:  Solving for h, Initial residual = 1.8425128e-06, Final residual = 2.3444939e-10, No Iterations 7
GAMG:  Solving for p_rgh, Initial residual = 1.2499957e-05, Final residual = 6.6628738e-09, No Iterations 4
time step continuity errors : sum local = 3.6840062e-08, global = 1.1819103e-08, cumulative = 0.00080270457
ExecutionTime = 75.88 s  ClockTime = 76 s
Inflow      : 0.00012107526 [kg/s]
Outflow     : 0.00012107527 [kg/s]
EnergyInflow  : 35.773163 [W]
EnergyOutflow : 35.936162 [W]
rho max/avg/min : 1.2016457 1.1396646 0.99812394
T   max/avg/min : 353.52542 310.86356 293.68537
P   max/avg/min : 101324.89 101316.14 101307.39
Prg max/avg/min : 101324.98 101324.49 101322.01
U   max/avg/min : 0.8438352 0.30231871 0
Prg max-min : 2.9747733
 
Iteration Number = 1990

DILUPBiCG:  Solving for Ux, Initial residual = 5.1390078e-05, Final residual = 2.4142e-09, No Iterations 3
DILUPBiCG:  Solving for Uy, Initial residual = 0.018402268, Final residual = 6.0728397e-06, No Iterations 3
DILUPBiCG:  Solving for Uz, Initial residual = 0.00012167694, Final residual = 1.7268323e-09, No Iterations 3
DILUPBiCG:  Solving for h, Initial residual = 1.8416302e-06, Final residual = 1.8310296e-09, No Iterations 5
GAMG:  Solving for p_rgh, Initial residual = 1.2463568e-05, Final residual = 8.2969894e-09, No Iterations 4
time step continuity errors : sum local = 4.3905151e-08, global = 1.3236657e-08, cumulative = 0.00080271781
ExecutionTime = 75.91 s  ClockTime = 76 s
Inflow      : 0.00012110309 [kg/s]
Outflow     : 0.00012110311 [kg/s]
EnergyInflow  : 35.781387 [W]
EnergyOutflow : 35.944386 [W]
rho max/avg/min : 1.2016457 1.1396651 0.99812416
T   max/avg/min : 353.52535 310.8634 293.68537
P   max/avg/min : 101324.89 101316.14 101307.39
Prg max/avg/min : 101324.98 101324.49 101322.01
U   max/avg/min : 0.84384091 0.30234051 0
Prg max-min : 2.97477
 
Iteration Number = 1991

DILUPBiCG:  Solving for Ux, Initial residual = 5.1804631e-05, Final residual = 2.3343498e-09, No Iterations 3
DILUPBiCG:  Solving for Uy, Initial residual = 0.017748309, Final residual = 1.7673794e-05, No Iterations 2
DILUPBiCG:  Solving for Uz, Initial residual = 0.00012144873, Final residual = 1.7224797e-09, No Iterations 3
DILUPBiCG:  Solving for h, Initial residual = 1.8407412e-06, Final residual = 1.7714836e-09, No Iterations 5
GAMG:  Solving for p_rgh, Initial residual = 1.2474617e-05, Final residual = 9.3180775e-09, No Iterations 4
time step continuity errors : sum local = 4.9489427e-08, global = 1.0566984e-08, cumulative = 0.00080272837
ExecutionTime = 75.95 s  ClockTime = 76 s
Inflow      : 0.00012113093 [kg/s]
Outflow     : 0.00012113094 [kg/s]
EnergyInflow  : 35.789612 [W]
EnergyOutflow : 35.95261 [W]
rho max/avg/min : 1.2016457 1.1396657 0.99812438
T   max/avg/min : 353.52527 310.86325 293.68537
P   max/avg/min : 101324.89 101316.14 101307.39
Prg max/avg/min : 101324.98 101324.49 101322.01
U   max/avg/min : 0.84384661 0.30236229 0
Prg max-min : 2.9747666
 
Iteration Number = 1992

DILUPBiCG:  Solving for Ux, Initial residual = 5.0692865e-05, Final residual = 2.2859631e-09, No Iterations 3
DILUPBiCG:  Solving for Uy, Initial residual = 0.018303714, Final residual = 6.8498279e-07, No Iterations 3
DILUPBiCG:  Solving for Uz, Initial residual = 0.00012163475, Final residual = 1.7254129e-09, No Iterations 3
DILUPBiCG:  Solving for h, Initial residual = 1.8399851e-06, Final residual = 1.8070704e-09, No Iterations 5
GAMG:  Solving for p_rgh, Initial residual = 1.2451709e-05, Final residual = 7.5018245e-09, No Iterations 4
time step continuity errors : sum local = 4.0786295e-08, global = 1.1615887e-08, cumulative = 0.00080273999
ExecutionTime = 75.98 s  ClockTime = 77 s
Inflow      : 0.00012115875 [kg/s]
Outflow     : 0.00012115876 [kg/s]
EnergyInflow  : 35.79783 [W]
EnergyOutflow : 35.96083 [W]
rho max/avg/min : 1.2016457 1.1396662 0.9981246
T   max/avg/min : 353.52519 310.86309 293.68537
P   max/avg/min : 101324.89 101316.14 101307.39
Prg max/avg/min : 101324.98 101324.49 101322.01
U   max/avg/min : 0.84385232 0.30238407 0
Prg max-min : 2.9747633
 
Iteration Number = 1993

DILUPBiCG:  Solving for Ux, Initial residual = 5.278383e-05, Final residual = 2.3186238e-09, No Iterations 3
DILUPBiCG:  Solving for Uy, Initial residual = 0.01768109, Final residual = 1.2625199e-06, No Iterations 3
DILUPBiCG:  Solving for Uz, Initial residual = 0.00012139076, Final residual = 1.7214522e-09, No Iterations 3
DILUPBiCG:  Solving for h, Initial residual = 1.8390078e-06, Final residual = 6.3485518e-10, No Iterations 6
GAMG:  Solving for p_rgh, Initial residual = 1.2457219e-05, Final residual = 6.0040003e-09, No Iterations 5
time step continuity errors : sum local = 3.3590005e-08, global = 2.7871563e-09, cumulative = 0.00080274278
ExecutionTime = 76.02 s  ClockTime = 77 s
Inflow      : 0.00012118657 [kg/s]
Outflow     : 0.00012118657 [kg/s]
EnergyInflow  : 35.80605 [W]
EnergyOutflow : 35.969047 [W]
rho max/avg/min : 1.2016457 1.1396668 0.99812482
T   max/avg/min : 353.52511 310.86293 293.68537
P   max/avg/min : 101324.89 101316.14 101307.39
Prg max/avg/min : 101324.98 101324.49 101322.01
U   max/avg/min : 0.84385803 0.30240584 0
Prg max-min : 2.9747599
 
Iteration Number = 1994

DILUPBiCG:  Solving for Ux, Initial residual = 5.0142166e-05, Final residual = 2.1632658e-09, No Iterations 3
DILUPBiCG:  Solving for Uy, Initial residual = 0.017395316, Final residual = 5.7536021e-07, No Iterations 3
DILUPBiCG:  Solving for Uz, Initial residual = 0.00012159699, Final residual = 1.7241507e-09, No Iterations 3
DILUPBiCG:  Solving for h, Initial residual = 1.8381534e-06, Final residual = 9.0452697e-10, No Iterations 6
GAMG:  Solving for p_rgh, Initial residual = 1.245157e-05, Final residual = 7.3332118e-09, No Iterations 4
time step continuity errors : sum local = 4.064674e-08, global = 1.0785878e-08, cumulative = 0.00080275356
ExecutionTime = 76.06 s  ClockTime = 77 s
Inflow      : 0.00012121436 [kg/s]
Outflow     : 0.00012121437 [kg/s]
EnergyInflow  : 35.814262 [W]
EnergyOutflow : 35.977262 [W]
rho max/avg/min : 1.2016457 1.1396673 0.99812504
T   max/avg/min : 353.52503 310.86278 293.68537
P   max/avg/min : 101324.89 101316.14 101307.39
Prg max/avg/min : 101324.98 101324.49 101322.01
U   max/avg/min : 0.84386373 0.3024276 0
Prg max-min : 2.9747566
 
Iteration Number = 1995

DILUPBiCG:  Solving for Ux, Initial residual = 5.2830503e-05, Final residual = 2.4048849e-09, No Iterations 3
DILUPBiCG:  Solving for Uy, Initial residual = 0.01749734, Final residual = 1.3204507e-06, No Iterations 3
DILUPBiCG:  Solving for Uz, Initial residual = 0.00012134973, Final residual = 1.7204672e-09, No Iterations 3
DILUPBiCG:  Solving for h, Initial residual = 1.8372468e-06, Final residual = 6.7143741e-11, No Iterations 8
GAMG:  Solving for p_rgh, Initial residual = 1.2455291e-05, Final residual = 5.1077677e-09, No Iterations 5
time step continuity errors : sum local = 3.0224418e-08, global = -1.735155e-09, cumulative = 0.00080275183
ExecutionTime = 76.1 s  ClockTime = 77 s
Inflow      : 0.00012124216 [kg/s]
Outflow     : 0.00012124216 [kg/s]
EnergyInflow  : 35.822476 [W]
EnergyOutflow : 35.985473 [W]
rho max/avg/min : 1.2016457 1.1396679 0.99812526
T   max/avg/min : 353.52495 310.86262 293.68537
P   max/avg/min : 101324.89 101316.14 101307.39
Prg max/avg/min : 101324.98 101324.49 101322.01
U   max/avg/min : 0.84386944 0.30244936 0
Prg max-min : 2.9747532
 
Iteration Number = 1996

DILUPBiCG:  Solving for Ux, Initial residual = 5.0175778e-05, Final residual = 2.256693e-09, No Iterations 3
DILUPBiCG:  Solving for Uy, Initial residual = 0.017913969, Final residual = 1.7003166e-06, No Iterations 3
DILUPBiCG:  Solving for Uz, Initial residual = 0.00012155013, Final residual = 1.7230394e-09, No Iterations 3
DILUPBiCG:  Solving for h, Initial residual = 1.8364024e-06, Final residual = 1.7226873e-09, No Iterations 5
GAMG:  Solving for p_rgh, Initial residual = 1.2445268e-05, Final residual = 7.2396111e-09, No Iterations 4
time step continuity errors : sum local = 3.8614626e-08, global = 8.270485e-09, cumulative = 0.0008027601
ExecutionTime = 76.13 s  ClockTime = 77 s
Inflow      : 0.00012126994 [kg/s]
Outflow     : 0.00012126994 [kg/s]
EnergyInflow  : 35.830682 [W]
EnergyOutflow : 35.993682 [W]
rho max/avg/min : 1.2016457 1.1396684 0.99812548
T   max/avg/min : 353.52488 310.86247 293.68537
P   max/avg/min : 101324.89 101316.14 101307.39
Prg max/avg/min : 101324.98 101324.49 101322.01
U   max/avg/min : 0.84387514 0.30247111 0
Prg max-min : 2.9747499
 
Iteration Number = 1997

DILUPBiCG:  Solving for Ux, Initial residual = 5.2550124e-05, Final residual = 2.4331057e-09, No Iterations 3
DILUPBiCG:  Solving for Uy, Initial residual = 0.018525247, Final residual = 1.4250603e-06, No Iterations 3
DILUPBiCG:  Solving for Uz, Initial residual = 0.0001213123, Final residual = 1.719399e-09, No Iterations 3
DILUPBiCG:  Solving for h, Initial residual = 1.8355077e-06, Final residual = 1.0611571e-09, No Iterations 6
GAMG:  Solving for p_rgh, Initial residual = 1.2436385e-05, Final residual = 5.1448016e-09, No Iterations 5
time step continuity errors : sum local = 3.0693202e-08, global = -4.7293293e-09, cumulative = 0.00080275537
ExecutionTime = 76.17 s  ClockTime = 77 s
Inflow      : 0.00012129772 [kg/s]
Outflow     : 0.00012129771 [kg/s]
EnergyInflow  : 35.838891 [W]
EnergyOutflow : 36.001888 [W]
rho max/avg/min : 1.2016457 1.1396689 0.99812571
T   max/avg/min : 353.5248 310.86231 293.68537
P   max/avg/min : 101324.89 101316.14 101307.39
Prg max/avg/min : 101324.98 101324.49 101322.01
U   max/avg/min : 0.84388084 0.30249285 0
Prg max-min : 2.9747466
 
Iteration Number = 1998

DILUPBiCG:  Solving for Ux, Initial residual = 5.0441909e-05, Final residual = 2.3109384e-09, No Iterations 3
DILUPBiCG:  Solving for Uy, Initial residual = 0.018860128, Final residual = 8.5662783e-07, No Iterations 3
DILUPBiCG:  Solving for Uz, Initial residual = 0.00012149833, Final residual = 1.7218585e-09, No Iterations 3
DILUPBiCG:  Solving for h, Initial residual = 1.8346616e-06, Final residual = 1.7695843e-09, No Iterations 5
GAMG:  Solving for p_rgh, Initial residual = 1.2447648e-05, Final residual = 7.8183533e-09, No Iterations 4
time step continuity errors : sum local = 4.2633968e-08, global = 1.2106403e-08, cumulative = 0.00080276748
ExecutionTime = 76.21 s  ClockTime = 77 s
Inflow      : 0.00012132547 [kg/s]
Outflow     : 0.00012132548 [kg/s]
EnergyInflow  : 35.847089 [W]
EnergyOutflow : 36.010091 [W]
rho max/avg/min : 1.2016457 1.1396695 0.99812593
T   max/avg/min : 353.52472 310.86216 293.68537
P   max/avg/min : 101324.89 101316.14 101307.39
Prg max/avg/min : 101324.98 101324.49 101322.01
U   max/avg/min : 0.84388654 0.30251459 0
Prg max-min : 2.9747432
 
Iteration Number = 1999

DILUPBiCG:  Solving for Ux, Initial residual = 5.2232827e-05, Final residual = 2.274412e-09, No Iterations 3
DILUPBiCG:  Solving for Uy, Initial residual = 0.018624841, Final residual = 8.2696767e-07, No Iterations 3
DILUPBiCG:  Solving for Uz, Initial residual = 0.00012127017, Final residual = 1.7186612e-09, No Iterations 3
DILUPBiCG:  Solving for h, Initial residual = 1.8337934e-06, Final residual = 1.7734605e-10, No Iterations 7
GAMG:  Solving for p_rgh, Initial residual = 1.2441856e-05, Final residual = 8.5005879e-09, No Iterations 4
time step continuity errors : sum local = 4.5105228e-08, global = 3.5770105e-09, cumulative = 0.00080277105
ExecutionTime = 76.24 s  ClockTime = 77 s
Inflow      : 0.00012135323 [kg/s]
Outflow     : 0.00012135323 [kg/s]
EnergyInflow  : 35.855291 [W]
EnergyOutflow : 36.018291 [W]
rho max/avg/min : 1.2016457 1.13967 0.99812615
T   max/avg/min : 353.52464 310.862 293.68537
P   max/avg/min : 101324.89 101316.14 101307.39
Prg max/avg/min : 101324.98 101324.49 101322.01
U   max/avg/min : 0.84389224 0.30253632 0
Prg max-min : 2.9747399
 
Iteration Number = 2000

DILUPBiCG:  Solving for Ux, Initial residual = 5.014767e-05, Final residual = 2.1902586e-09, No Iterations 3
DILUPBiCG:  Solving for Uy, Initial residual = 0.017847134, Final residual = 1.3991607e-05, No Iterations 2
DILUPBiCG:  Solving for Uz, Initial residual = 0.00012146732, Final residual = 1.7208867e-09, No Iterations 3
DILUPBiCG:  Solving for h, Initial residual = 1.8330225e-06, Final residual = 1.1812545e-10, No Iterations 7
GAMG:  Solving for p_rgh, Initial residual = 1.2451723e-05, Final residual = 8.6129862e-09, No Iterations 4
time step continuity errors : sum local = 4.5613736e-08, global = 1.1723312e-08, cumulative = 0.00080278278
ExecutionTime = 76.33 s  ClockTime = 77 s
Inflow      : 0.00012138096 [kg/s]
Outflow     : 0.00012138097 [kg/s]
EnergyInflow  : 35.863486 [W]
EnergyOutflow : 36.026488 [W]
rho max/avg/min : 1.2016457 1.1396706 0.99812637
T   max/avg/min : 353.52456 310.86184 293.68537
P   max/avg/min : 101324.89 101316.14 101307.39
Prg max/avg/min : 101324.98 101324.49 101322.01
U   max/avg/min : 0.84389794 0.30255804 0
Prg max-min : 2.9747365
 
End

