/*---------------------------------------------------------------------------*\
| =========                 |                                                 |
| \\      /  F ield         | OpenFOAM: The Open Source CFD Toolbox           |
|  \\    /   O peration     | Version:  3.0.1                                 |
|   \\  /    A nd           | Web:      www.OpenFOAM.org                      |
|    \\/     M anipulation  |                                                 |
\*---------------------------------------------------------------------------*/
Build  : 3.0.1-119cac7e8750
Exec   : pupobuoyantSimpleFoam
Date   : May 10 2016
Time   : 18:12:37
Host   : "SC500"
PID    : 4669
Case   : /home/pedro/OpenFOAM/pedro-3.0.1/run/test1500_Wedge
nProcs : 1
sigFpe : Enabling floating point exception trapping (FOAM_SIGFPE).
fileModificationChecking : Monitoring run-time modified files using timeStampMaster
allowSystemOperations : Allowing user-supplied system call operations

// * * * * * * * * * * * * * * * * * * * * * * * * * * * * * * * * * * * * * //
Create time

Create mesh for time = 0


SIMPLE: convergence criteria
    field p_rgh	 tolerance 1e-05
    field Uz	 tolerance 1e-05
    field h	 tolerance 1e-05

Reading thermophysical properties

Selecting thermodynamics package 
{
    type            heRhoThermo;
    mixture         pureMixture;
    transport       sutherland;
    thermo          hConst;
    equationOfState perfectGas;
    specie          specie;
    energy          sensibleEnthalpy;
}

Reading field U

Reading/calculating face flux field phi


Reading g

Reading hRef
Calculating field g.h

Selecting turbulence model type laminar
Reading field p_rgh

rho max/min : 1.1766127 1.1764117
thermo : max(thermo:alpha) [1 -1 -1 0 0 0 0] 2.6727858e-05
No MRF models present

No finite volume options present

Selecting radiationModel P1
Selecting absorptionEmissionModel constantAbsorptionEmission
Selecting scatterModel none

Starting Iteration loop

Iteration Number = 1

DILUPBiCG:  Solving for Ux, Initial residual = 0.5687481, Final residual = 9.0559125e-07, No Iterations 2
DILUPBiCG:  Solving for Uy, Initial residual = 5.6654405e-06, Final residual = 2.1165053e-11, No Iterations 2
DILUPBiCG:  Solving for Uz, Initial residual = 1, Final residual = 6.0287487e-07, No Iterations 2
DILUPBiCG:  Solving for h, Initial residual = 1, Final residual = 7.4754849e-05, No Iterations 1
DICPCG:  Solving for G, Initial residual = 1, Final residual = 41731722, No Iterations 1001
DICPCG:  Solving for p_rgh, Initial residual = 0.9999999, Final residual = 6.3798927e-05, No Iterations 73
time step continuity errors : sum local = 5.5461002e-05, global = 4.6225439e-08, cumulative = 4.6225439e-08
rho max/min : 1.1766117 1.0899701
ExecutionTime = 0.16 s  ClockTime = 0 s
Inflow=  1.8727714e-10 [kg/s]
Outflow= 2.2582913e-10 [kg/s]
Energy Inflow   = 5.6520242e-05 [W]
Energy Outflow  = 6.8155235e-05 [W]
Energy Flow     = 1.1634993e-05 [W]

Iteration Number = 2

DILUPBiCG:  Solving for Ux, Initial residual = 0.17263686, Final residual = 2.6590505e-06, No Iterations 1
DILUPBiCG:  Solving for Uy, Initial residual = 0.045890309, Final residual = 1.2860888e-06, No Iterations 1
DILUPBiCG:  Solving for Uz, Initial residual = 0.31291135, Final residual = 7.3490187e-07, No Iterations 2
DILUPBiCG:  Solving for h, Initial residual = 0.044922273, Final residual = 1.8697916e-06, No Iterations 1
DICPCG:  Solving for p_rgh, Initial residual = 0.28700095, Final residual = 1.4154981e-05, No Iterations 73
time step continuity errors : sum local = 2.5442214e-05, global = -4.2909538e-08, cumulative = 3.3159007e-09
rho max/min : 1.1766117 1.1102095
ExecutionTime = 0.19 s  ClockTime = 0 s
Inflow=  3.7247082e-10 [kg/s]
Outflow= 3.3668723e-10 [kg/s]
Energy Inflow   = 0.0001124116 [W]
Energy Outflow  = 0.0001019081 [W]
Energy Flow     = -1.0503504e-05 [W]

Iteration Number = 3

DILUPBiCG:  Solving for Ux, Initial residual = 0.0319661, Final residual = 9.8724933e-07, No Iterations 1
DILUPBiCG:  Solving for Uy, Initial residual = 0.042671538, Final residual = 1.2662551e-06, No Iterations 1
DILUPBiCG:  Solving for Uz, Initial residual = 0.33580453, Final residual = 4.496962e-07, No Iterations 2
DILUPBiCG:  Solving for h, Initial residual = 0.033864941, Final residual = 9.3448995e-07, No Iterations 1
DICPCG:  Solving for p_rgh, Initial residual = 0.1022749, Final residual = 6.1550413e-06, No Iterations 72
time step continuity errors : sum local = 1.4243386e-05, global = -4.9993912e-08, cumulative = -4.6678012e-08
rho max/min : 1.1766117 1.1023715
ExecutionTime = 0.22 s  ClockTime = 0 s
Inflow=  2.5004935e-10 [kg/s]
Outflow= 2.0835602e-10 [kg/s]
Energy Inflow   = 7.5464863e-05 [W]
Energy Outflow  = 6.3846504e-05 [W]
Energy Flow     = -1.161836e-05 [W]

Iteration Number = 4

DILUPBiCG:  Solving for Ux, Initial residual = 0.13805216, Final residual = 2.8290806e-06, No Iterations 1
DILUPBiCG:  Solving for Uy, Initial residual = 0.021134445, Final residual = 7.5193905e-07, No Iterations 1
DILUPBiCG:  Solving for Uz, Initial residual = 0.23145482, Final residual = 4.4914657e-07, No Iterations 2
DILUPBiCG:  Solving for h, Initial residual = 0.027313241, Final residual = 3.5374253e-07, No Iterations 1
DICPCG:  Solving for p_rgh, Initial residual = 0.043675752, Final residual = 2.5225649e-06, No Iterations 73
time step continuity errors : sum local = 6.434201e-06, global = -1.0539063e-08, cumulative = -5.7217074e-08
rho max/min : 1.1766117 1.0961757
ExecutionTime = 0.25 s  ClockTime = 0 s
Inflow=  1.1291543e-10 [kg/s]
Outflow= 1.0412564e-10 [kg/s]
Energy Inflow   = 3.4077872e-05 [W]
Energy Outflow  = 3.3371854e-05 [W]
Energy Flow     = -7.0601793e-07 [W]

Iteration Number = 5

DILUPBiCG:  Solving for Ux, Initial residual = 0.16488823, Final residual = 3.7555656e-06, No Iterations 1
DILUPBiCG:  Solving for Uy, Initial residual = 0.011911007, Final residual = 4.7658219e-07, No Iterations 1
DILUPBiCG:  Solving for Uz, Initial residual = 0.10205647, Final residual = 1.266913e-07, No Iterations 2
DILUPBiCG:  Solving for h, Initial residual = 0.023010961, Final residual = 2.4414233e-07, No Iterations 1
DICPCG:  Solving for p_rgh, Initial residual = 0.040355736, Final residual = 2.1775963e-06, No Iterations 73
time step continuity errors : sum local = 5.8477765e-06, global = 2.4842911e-08, cumulative = -3.2374163e-08
rho max/min : 1.1766117 1.0907057
ExecutionTime = 0.29 s  ClockTime = 0 s
Inflow=  7.5566561e-11 [kg/s]
Outflow= 9.6285589e-11 [kg/s]
Energy Inflow   = 2.2805987e-05 [W]
Energy Outflow  = 3.2220288e-05 [W]
Energy Flow     = 9.4143008e-06 [W]

Iteration Number = 6

DILUPBiCG:  Solving for Ux, Initial residual = 0.11967799, Final residual = 2.9850428e-06, No Iterations 1
DILUPBiCG:  Solving for Uy, Initial residual = 0.010916244, Final residual = 4.3612067e-07, No Iterations 1
DILUPBiCG:  Solving for Uz, Initial residual = 0.076729225, Final residual = 1.2407355e-07, No Iterations 2
DILUPBiCG:  Solving for h, Initial residual = 0.019926578, Final residual = 4.1425379e-07, No Iterations 1
DICPCG:  Solving for p_rgh, Initial residual = 0.042675545, Final residual = 3.7266913e-06, No Iterations 55
time step continuity errors : sum local = 1.0375728e-05, global = 1.2767755e-06, cumulative = 1.2444014e-06
rho max/min : 1.1766117 1.0858225
ExecutionTime = 0.31 s  ClockTime = 0 s
Inflow=  -9.7879823e-10 [kg/s]
Outflow= 8.6033291e-11 [kg/s]
Energy Inflow   = -0.00029540131 [W]
Energy Outflow  = 3.0575116e-05 [W]
Energy Flow     = 0.00032597642 [W]

Iteration Number = 7

DILUPBiCG:  Solving for Ux, Initial residual = 0.058350864, Final residual = 1.9374467e-06, No Iterations 1
DILUPBiCG:  Solving for Uy, Initial residual = 0.010754296, Final residual = 4.3096212e-07, No Iterations 1
DILUPBiCG:  Solving for Uz, Initial residual = 0.05844107, Final residual = 4.934816e-08, No Iterations 2
DILUPBiCG:  Solving for h, Initial residual = 0.017625842, Final residual = 5.3109797e-07, No Iterations 1
DICPCG:  Solving for p_rgh, Initial residual = 0.041010912, Final residual = 2.2415751e-06, No Iterations 72
time step continuity errors : sum local = 6.4661316e-06, global = -2.1090789e-08, cumulative = 1.2233106e-06
rho max/min : 1.1766117 1.0814102
ExecutionTime = 0.34 s  ClockTime = 0 s
Inflow=  6.7509684e-11 [kg/s]
Outflow= 4.9922623e-11 [kg/s]
Energy Inflow   = 2.0374422e-05 [W]
Energy Outflow  = 2.1395796e-05 [W]
Energy Flow     = 1.0213737e-06 [W]

Iteration Number = 8

DILUPBiCG:  Solving for Ux, Initial residual = 0.03091816, Final residual = 8.2631403e-07, No Iterations 1
DILUPBiCG:  Solving for Uy, Initial residual = 0.0099280566, Final residual = 4.6971094e-07, No Iterations 1
DILUPBiCG:  Solving for Uz, Initial residual = 0.045076961, Final residual = 1.9863771e-08, No Iterations 2
DILUPBiCG:  Solving for h, Initial residual = 0.015848189, Final residual = 6.1896455e-07, No Iterations 1
DICPCG:  Solving for p_rgh, Initial residual = 0.036254588, Final residual = 1.5820266e-06, No Iterations 72
time step continuity errors : sum local = 4.7053074e-06, global = -2.2561769e-08, cumulative = 1.2007488e-06
rho max/min : 1.1766117 1.0773816
ExecutionTime = 0.39 s  ClockTime = 0 s
Inflow=  -1.3406922e-11 [kg/s]
Outflow= -3.2220325e-11 [kg/s]
Energy Inflow   = -4.0462097e-06 [W]
Energy Outflow  = -1.3817328e-06 [W]
Energy Flow     = 2.6644769e-06 [W]

Iteration Number = 9

DILUPBiCG:  Solving for Ux, Initial residual = 0.0283269, Final residual = 6.8933286e-07, No Iterations 1
DILUPBiCG:  Solving for Uy, Initial residual = 0.0089217155, Final residual = 4.2952035e-07, No Iterations 1
DILUPBiCG:  Solving for Uz, Initial residual = 0.038608836, Final residual = 1.7588941e-08, No Iterations 2
DILUPBiCG:  Solving for h, Initial residual = 0.014431626, Final residual = 6.8145962e-07, No Iterations 1
DICPCG:  Solving for p_rgh, Initial residual = 0.031041564, Final residual = 3.0955211e-06, No Iterations 49
time step continuity errors : sum local = 9.4129626e-06, global = -1.3595625e-06, cumulative = -1.5881371e-07
rho max/min : 1.1766117 1.0736703
ExecutionTime = 0.42 s  ClockTime = 0 s
Inflow=  1.0100448e-09 [kg/s]
Outflow= -1.2382648e-10 [kg/s]
Energy Inflow   = 0.00030483152 [W]
Energy Outflow  = -2.6713528e-05 [W]
Energy Flow     = -0.00033154505 [W]

Iteration Number = 10

DILUPBiCG:  Solving for Ux, Initial residual = 0.032650504, Final residual = 6.3880163e-07, No Iterations 1
DILUPBiCG:  Solving for Uy, Initial residual = 0.009054032, Final residual = 4.345943e-07, No Iterations 1
DILUPBiCG:  Solving for Uz, Initial residual = 0.03405121, Final residual = 7.6979746e-09, No Iterations 2
DILUPBiCG:  Solving for h, Initial residual = 0.013275313, Final residual = 7.2261673e-07, No Iterations 1
DICPCG:  Solving for G, Initial residual = 0.99999361, Final residual = 9.7998298e-05, No Iterations 69
DICPCG:  Solving for p_rgh, Initial residual = 0.02682789, Final residual = 2.3647504e-06, No Iterations 71
time step continuity errors : sum local = 7.3405367e-06, global = 4.6196376e-08, cumulative = -1.1261734e-07
rho max/min : 1.1766117 1.0702249
ExecutionTime = 0.46 s  ClockTime = 0 s
Inflow=  -2.4192425e-10 [kg/s]
Outflow= -2.0339361e-10 [kg/s]
Energy Inflow   = -7.3012739e-05 [W]
Energy Outflow  = -4.8106866e-05 [W]
Energy Flow     = 2.4905873e-05 [W]

Iteration Number = 11

DILUPBiCG:  Solving for Ux, Initial residual = 0.029134776, Final residual = 6.1556522e-07, No Iterations 1
DILUPBiCG:  Solving for Uy, Initial residual = 0.0079164957, Final residual = 4.0497486e-07, No Iterations 1
DILUPBiCG:  Solving for Uz, Initial residual = 0.031141778, Final residual = 9.0254607e-09, No Iterations 2
DILUPBiCG:  Solving for h, Initial residual = 0.011109351, Final residual = 9.0757978e-07, No Iterations 1
DICPCG:  Solving for p_rgh, Initial residual = 0.026378773, Final residual = 1.7813627e-06, No Iterations 15
time step continuity errors : sum local = 5.59433e-06, global = -1.4809906e-06, cumulative = -1.593608e-06
rho max/min : 1.1766117 1.070084
ExecutionTime = 0.48 s  ClockTime = 0 s
Inflow=  9.7348276e-10 [kg/s]
Outflow= -2.6165984e-10 [kg/s]
Energy Inflow   = 0.0002937971 [W]
Energy Outflow  = -6.2913251e-05 [W]
Energy Flow     = -0.00035671035 [W]

Iteration Number = 12

DILUPBiCG:  Solving for Ux, Initial residual = 0.075842979, Final residual = 1.0845772e-06, No Iterations 1
DILUPBiCG:  Solving for Uy, Initial residual = 0.0089679831, Final residual = 5.0763006e-07, No Iterations 1
DILUPBiCG:  Solving for Uz, Initial residual = 0.028303098, Final residual = 7.1691524e-09, No Iterations 2
DILUPBiCG:  Solving for h, Initial residual = 0.010459947, Final residual = 8.5871849e-07, No Iterations 1
DICPCG:  Solving for p_rgh, Initial residual = 0.027544973, Final residual = 1.8022827e-06, No Iterations 8
time step continuity errors : sum local = 5.6536476e-06, global = 3.4721001e-07, cumulative = -1.246398e-06
rho max/min : 1.1766117 1.0680609
ExecutionTime = 0.5 s  ClockTime = 1 s
Inflow=  -6.463737e-10 [kg/s]
Outflow= -3.5679835e-10 [kg/s]
Energy Inflow   = -0.00019507558 [W]
Energy Outflow  = -8.8570477e-05 [W]
Energy Flow     = 0.00010650511 [W]

Iteration Number = 13

DILUPBiCG:  Solving for Ux, Initial residual = 0.049444784, Final residual = 7.5190659e-07, No Iterations 1
DILUPBiCG:  Solving for Uy, Initial residual = 0.009049711, Final residual = 5.0072333e-07, No Iterations 1
DILUPBiCG:  Solving for Uz, Initial residual = 0.026078363, Final residual = 6.5537915e-09, No Iterations 2
DILUPBiCG:  Solving for h, Initial residual = 0.0098789777, Final residual = 8.1937998e-07, No Iterations 1
DICPCG:  Solving for p_rgh, Initial residual = 0.025439861, Final residual = 2.1268288e-06, No Iterations 8
time step continuity errors : sum local = 6.6775296e-06, global = 6.0346723e-07, cumulative = -6.4293072e-07
rho max/min : 1.1766117 1.0660507
ExecutionTime = 0.53 s  ClockTime = 1 s
Inflow=  -9.725742e-10 [kg/s]
Outflow= -4.6928066e-10 [kg/s]
Energy Inflow   = -0.00029352289 [W]
Energy Outflow  = -0.000119187 [W]
Energy Flow     = 0.00017433589 [W]

Iteration Number = 14

DILUPBiCG:  Solving for Ux, Initial residual = 0.015562116, Final residual = 8.709663e-07, No Iterations 1
DILUPBiCG:  Solving for Uy, Initial residual = 0.0090701702, Final residual = 5.6212309e-07, No Iterations 1
DILUPBiCG:  Solving for Uz, Initial residual = 0.024272263, Final residual = 2.415576e-06, No Iterations 1
DILUPBiCG:  Solving for h, Initial residual = 0.0093579359, Final residual = 7.8688535e-07, No Iterations 1
DICPCG:  Solving for p_rgh, Initial residual = 0.022551966, Final residual = 2.1741058e-06, No Iterations 27
time step continuity errors : sum local = 6.8483806e-06, global = 1.3314865e-06, cumulative = 6.8855578e-07
rho max/min : 1.1766117 1.0640441
ExecutionTime = 0.56 s  ClockTime = 1 s
Inflow=  -1.6998939e-09 [kg/s]
Outflow= -5.8943289e-10 [kg/s]
Energy Inflow   = -0.00051302799 [W]
Energy Outflow  = -0.00015183368 [W]
Energy Flow     = 0.00036119431 [W]

Iteration Number = 15

DILUPBiCG:  Solving for Ux, Initial residual = 0.014997268, Final residual = 1.2608762e-06, No Iterations 1
DILUPBiCG:  Solving for Uy, Initial residual = 0.0079109512, Final residual = 5.4301946e-07, No Iterations 1
DILUPBiCG:  Solving for Uz, Initial residual = 0.022655959, Final residual = 2.000442e-06, No Iterations 1
DILUPBiCG:  Solving for h, Initial residual = 0.0088937661, Final residual = 7.6058554e-07, No Iterations 1
DICPCG:  Solving for p_rgh, Initial residual = 0.019912684, Final residual = 1.6204667e-06, No Iterations 15
time step continuity errors : sum local = 5.1404125e-06, global = 7.9196586e-07, cumulative = 1.4805216e-06
rho max/min : 1.1766117 1.0620593
ExecutionTime = 0.58 s  ClockTime = 1 s
Inflow=  -1.3799577e-09 [kg/s]
Outflow= -7.1945664e-10 [kg/s]
Energy Inflow   = -0.00041647122 [W]
Energy Outflow  = -0.000187159 [W]
Energy Flow     = 0.00022931222 [W]

Iteration Number = 16

DILUPBiCG:  Solving for Ux, Initial residual = 0.019402456, Final residual = 1.5564756e-06, No Iterations 1
DILUPBiCG:  Solving for Uy, Initial residual = 0.0070783188, Final residual = 5.2365315e-07, No Iterations 1
DILUPBiCG:  Solving for Uz, Initial residual = 0.021333576, Final residual = 1.8061867e-06, No Iterations 1
DILUPBiCG:  Solving for h, Initial residual = 0.0084778856, Final residual = 7.3918892e-07, No Iterations 1
DICPCG:  Solving for p_rgh, Initial residual = 0.017819431, Final residual = 1.5639624e-06, No Iterations 15
time step continuity errors : sum local = 4.9973395e-06, global = 6.1478566e-07, cumulative = 2.0953073e-06
rho max/min : 1.1766117 1.0601073
ExecutionTime = 0.6 s  ClockTime = 1 s
Inflow=  -1.3717175e-09 [kg/s]
Outflow= -8.5898484e-10 [kg/s]
Energy Inflow   = -0.00041398434 [W]
Energy Outflow  = -0.00022503977 [W]
Energy Flow     = 0.00018894457 [W]

Iteration Number = 17

DILUPBiCG:  Solving for Ux, Initial residual = 0.018596364, Final residual = 1.6580123e-06, No Iterations 1
DILUPBiCG:  Solving for Uy, Initial residual = 0.0064897971, Final residual = 5.3168596e-07, No Iterations 1
DILUPBiCG:  Solving for Uz, Initial residual = 0.020195372, Final residual = 1.6507322e-06, No Iterations 1
DILUPBiCG:  Solving for h, Initial residual = 0.0081033628, Final residual = 7.2063264e-07, No Iterations 1
DICPCG:  Solving for p_rgh, Initial residual = 0.016236755, Final residual = 1.3830351e-06, No Iterations 15
time step continuity errors : sum local = 4.4603578e-06, global = -8.9602508e-09, cumulative = 2.0863471e-06
rho max/min : 1.1766117 1.0581947
ExecutionTime = 0.63 s  ClockTime = 1 s
Inflow=  -9.932419e-10 [kg/s]
Outflow= -1.0007132e-09 [kg/s]
Energy Inflow   = -0.00029976041 [W]
Energy Outflow  = -0.0002632625 [W]
Energy Flow     = 3.6497903e-05 [W]

Iteration Number = 18

DILUPBiCG:  Solving for Ux, Initial residual = 0.01788994, Final residual = 4.9725754e-10, No Iterations 2
DILUPBiCG:  Solving for Uy, Initial residual = 0.0058899341, Final residual = 5.2592627e-07, No Iterations 1
DILUPBiCG:  Solving for Uz, Initial residual = 0.019217128, Final residual = 1.5454336e-06, No Iterations 1
DILUPBiCG:  Solving for h, Initial residual = 0.0077644103, Final residual = 7.0488396e-07, No Iterations 1
DICPCG:  Solving for p_rgh, Initial residual = 0.015007341, Final residual = 1.462361e-06, No Iterations 27
time step continuity errors : sum local = 4.7525946e-06, global = -3.3709739e-07, cumulative = 1.7492497e-06
rho max/min : 1.1766117 1.0563251
ExecutionTime = 0.67 s  ClockTime = 1 s
Inflow=  -8.6358737e-10 [kg/s]
Outflow= -1.144725e-09 [kg/s]
Energy Inflow   = -0.00026063067 [W]
Energy Outflow  = -0.00030184401 [W]
Energy Flow     = -4.1213345e-05 [W]

Iteration Number = 19

DILUPBiCG:  Solving for Ux, Initial residual = 0.015825695, Final residual = 4.0898189e-10, No Iterations 2
DILUPBiCG:  Solving for Uy, Initial residual = 0.0054814245, Final residual = 5.2408745e-07, No Iterations 1
DILUPBiCG:  Solving for Uz, Initial residual = 0.018345068, Final residual = 1.4447135e-06, No Iterations 1
DILUPBiCG:  Solving for h, Initial residual = 0.0074562555, Final residual = 6.907138e-07, No Iterations 1
DICPCG:  Solving for p_rgh, Initial residual = 0.013984595, Final residual = 1.3488126e-06, No Iterations 15
time step continuity errors : sum local = 4.4189411e-06, global = -1.6568008e-06, cumulative = 9.2448896e-08
rho max/min : 1.1766117 1.0545001
ExecutionTime = 0.69 s  ClockTime = 1 s
Inflow=  8.6250703e-11 [kg/s]
Outflow= -1.2955189e-09 [kg/s]
Energy Inflow   = 2.6030463e-05 [W]
Energy Outflow  = -0.00034213285 [W]
Energy Flow     = -0.00036816331 [W]

Iteration Number = 20

DILUPBiCG:  Solving for Ux, Initial residual = 0.013787153, Final residual = 3.3494796e-10, No Iterations 2
DILUPBiCG:  Solving for Uy, Initial residual = 0.0046366284, Final residual = 7.4711935e-11, No Iterations 2
DILUPBiCG:  Solving for Uz, Initial residual = 0.017594714, Final residual = 1.4108328e-06, No Iterations 1
DILUPBiCG:  Solving for h, Initial residual = 0.0071748912, Final residual = 6.7761153e-07, No Iterations 1
DICPCG:  Solving for G, Initial residual = 0.94131004, Final residual = 18.909349, No Iterations 1001
DICPCG:  Solving for p_rgh, Initial residual = 0.013198853, Final residual = 1.2578343e-06, No Iterations 71
time step continuity errors : sum local = 4.1758392e-06, global = -1.616595e-08, cumulative = 7.6282946e-08
rho max/min : 1.1766117 1.0527199
ExecutionTime = 0.81 s  ClockTime = 1 s
Inflow=  -1.4460258e-09 [kg/s]
Outflow= -1.459507e-09 [kg/s]
Energy Inflow   = -0.00043641057 [W]
Energy Outflow  = -0.0003860545 [W]
Energy Flow     = 5.0356077e-05 [W]

Iteration Number = 21

DILUPBiCG:  Solving for Ux, Initial residual = 0.012408599, Final residual = 3.1021801e-10, No Iterations 2
DILUPBiCG:  Solving for Uy, Initial residual = 0.0046535205, Final residual = 8.4264416e-11, No Iterations 2
DILUPBiCG:  Solving for Uz, Initial residual = 0.017074547, Final residual = 2.5556434e-09, No Iterations 2
DILUPBiCG:  Solving for h, Initial residual = 0.0061869353, Final residual = 4.220555e-10, No Iterations 2
DICPCG:  Solving for p_rgh, Initial residual = 0.020123016, Final residual = 1.5940082e-06, No Iterations 8
time step continuity errors : sum local = 5.3237648e-06, global = -2.1331798e-06, cumulative = -2.0568968e-06
rho max/min : 1.1766117 1.0538367
ExecutionTime = 0.84 s  ClockTime = 1 s
Inflow=  1.5242198e-10 [kg/s]
Outflow= -1.6266476e-09 [kg/s]
Energy Inflow   = 4.6000953e-05 [W]
Energy Outflow  = -0.00043085854 [W]
Energy Flow     = -0.00047685949 [W]

Iteration Number = 22

DILUPBiCG:  Solving for Ux, Initial residual = 0.075531413, Final residual = 1.3175141e-06, No Iterations 1
DILUPBiCG:  Solving for Uy, Initial residual = 0.0055928527, Final residual = 9.5081638e-11, No Iterations 2
DILUPBiCG:  Solving for Uz, Initial residual = 0.016373186, Final residual = 2.3336724e-09, No Iterations 2
DILUPBiCG:  Solving for h, Initial residual = 0.0060104052, Final residual = 5.1318235e-11, No Iterations 2
DICPCG:  Solving for p_rgh, Initial residual = 0.020803251, Final residual = 1.8297536e-06, No Iterations 15
time step continuity errors : sum local = 6.1645562e-06, global = -6.1392799e-07, cumulative = -2.6708248e-06
rho max/min : 1.1766117 1.053088
ExecutionTime = 0.86 s  ClockTime = 1 s
Inflow=  -1.3131678e-09 [kg/s]
Outflow= -1.8251825e-09 [kg/s]
Energy Inflow   = -0.00039631405 [W]
Energy Outflow  = -0.00048481685 [W]
Energy Flow     = -8.8502798e-05 [W]

Iteration Number = 23

DILUPBiCG:  Solving for Ux, Initial residual = 0.040896862, Final residual = 5.6676884e-07, No Iterations 1
DILUPBiCG:  Solving for Uy, Initial residual = 0.0064003879, Final residual = 1.1250577e-10, No Iterations 2
DILUPBiCG:  Solving for Uz, Initial residual = 0.015696053, Final residual = 1.9837598e-09, No Iterations 2
DILUPBiCG:  Solving for h, Initial residual = 0.0058426176, Final residual = 3.0867045e-11, No Iterations 2
DICPCG:  Solving for p_rgh, Initial residual = 0.018657999, Final residual = 1.6586515e-06, No Iterations 17
time step continuity errors : sum local = 5.6443167e-06, global = -1.6091147e-07, cumulative = -2.8317363e-06
rho max/min : 1.1766117 1.0522372
ExecutionTime = 0.9 s  ClockTime = 1 s
Inflow=  -1.9035661e-09 [kg/s]
Outflow= -2.0377653e-09 [kg/s]
Energy Inflow   = -0.00057449625 [W]
Energy Outflow  = -0.00054270168 [W]
Energy Flow     = 3.1794573e-05 [W]

Iteration Number = 24

DILUPBiCG:  Solving for Ux, Initial residual = 0.010819175, Final residual = 2.3048432e-10, No Iterations 2
DILUPBiCG:  Solving for Uy, Initial residual = 0.0056644388, Final residual = 1.0598062e-10, No Iterations 2
DILUPBiCG:  Solving for Uz, Initial residual = 0.015105705, Final residual = 1.7502097e-09, No Iterations 2
DILUPBiCG:  Solving for h, Initial residual = 0.0056808289, Final residual = 2.6068813e-11, No Iterations 2
DICPCG:  Solving for p_rgh, Initial residual = 0.016033972, Final residual = 1.2381493e-06, No Iterations 21
time step continuity errors : sum local = 4.2487031e-06, global = -1.6971299e-07, cumulative = -3.0014493e-06
rho max/min : 1.1766117 1.0512963
ExecutionTime = 0.92 s  ClockTime = 1 s
Inflow=  -2.1172013e-09 [kg/s]
Outflow= -2.258741e-09 [kg/s]
Energy Inflow   = -0.00063897134 [W]
Energy Outflow  = -0.00060279725 [W]
Energy Flow     = 3.6174091e-05 [W]

Iteration Number = 25

DILUPBiCG:  Solving for Ux, Initial residual = 0.027769756, Final residual = 2.1066987e-06, No Iterations 1
DILUPBiCG:  Solving for Uy, Initial residual = 0.0049697027, Final residual = 1.1687495e-10, No Iterations 2
DILUPBiCG:  Solving for Uz, Initial residual = 0.014581076, Final residual = 1.5819676e-09, No Iterations 2
DILUPBiCG:  Solving for h, Initial residual = 0.005524578, Final residual = 2.4562232e-11, No Iterations 2
DICPCG:  Solving for p_rgh, Initial residual = 0.013870027, Final residual = 1.2170448e-06, No Iterations 29
time step continuity errors : sum local = 4.2274868e-06, global = -6.4452675e-07, cumulative = -3.645976e-06
rho max/min : 1.1766117 1.0502951
ExecutionTime = 0.95 s  ClockTime = 1 s
Inflow=  -1.9557415e-09 [kg/s]
Outflow= -2.4932757e-09 [kg/s]
Energy Inflow   = -0.00059024279 [W]
Energy Outflow  = -0.00066664524 [W]
Energy Flow     = -7.6402454e-05 [W]

Iteration Number = 26

DILUPBiCG:  Solving for Ux, Initial residual = 0.032002015, Final residual = 3.9800556e-10, No Iterations 2
DILUPBiCG:  Solving for Uy, Initial residual = 0.0044420132, Final residual = 1.1604545e-10, No Iterations 2
DILUPBiCG:  Solving for Uz, Initial residual = 0.014088023, Final residual = 1.3421203e-09, No Iterations 2
DILUPBiCG:  Solving for h, Initial residual = 0.0053765549, Final residual = 2.4937703e-11, No Iterations 2
DICPCG:  Solving for p_rgh, Initial residual = 0.012320448, Final residual = 1.0462331e-06, No Iterations 15
time step continuity errors : sum local = 3.6696758e-06, global = -1.62811e-06, cumulative = -5.2740861e-06
rho max/min : 1.1766117 1.0492545
ExecutionTime = 0.98 s  ClockTime = 1 s
Inflow=  -1.3764228e-09 [kg/s]
Outflow= -2.7342649e-09 [kg/s]
Energy Inflow   = -0.00041540441 [W]
Energy Outflow  = -0.00073208861 [W]
Energy Flow     = -0.0003166842 [W]

Iteration Number = 27

DILUPBiCG:  Solving for Ux, Initial residual = 0.028746966, Final residual = 4.7864091e-10, No Iterations 2
DILUPBiCG:  Solving for Uy, Initial residual = 0.0039336209, Final residual = 1.3591419e-10, No Iterations 2
DILUPBiCG:  Solving for Uz, Initial residual = 0.01365957, Final residual = 1.2686054e-09, No Iterations 2
DILUPBiCG:  Solving for h, Initial residual = 0.0052369663, Final residual = 2.6256026e-11, No Iterations 2
DICPCG:  Solving for p_rgh, Initial residual = 0.011229614, Final residual = 5.9340864e-07, No Iterations 72
time step continuity errors : sum local = 2.1396266e-06, global = 4.321832e-10, cumulative = -5.2736539e-06
rho max/min : 1.1766117 1.0481895
ExecutionTime = 1.01 s  ClockTime = 1 s
Inflow=  -2.9862994e-09 [kg/s]
Outflow= -2.9859384e-09 [kg/s]
Energy Inflow   = -0.00090126517 [W]
Energy Outflow  = -0.00080039497 [W]
Energy Flow     = 0.0001008702 [W]

Iteration Number = 28

DILUPBiCG:  Solving for Ux, Initial residual = 0.023070457, Final residual = 5.0132999e-10, No Iterations 2
DILUPBiCG:  Solving for Uy, Initial residual = 0.0033995903, Final residual = 1.2498517e-10, No Iterations 2
DILUPBiCG:  Solving for Uz, Initial residual = 0.013402383, Final residual = 1.9902832e-09, No Iterations 2
DILUPBiCG:  Solving for h, Initial residual = 0.005105118, Final residual = 2.8216267e-11, No Iterations 2
DICPCG:  Solving for p_rgh, Initial residual = 0.010399664, Final residual = 1.0199206e-06, No Iterations 15
time step continuity errors : sum local = 3.6352124e-06, global = -4.858053e-07, cumulative = -5.7594592e-06
rho max/min : 1.1766117 1.0471108
ExecutionTime = 1.04 s  ClockTime = 1 s
Inflow=  -2.8458572e-09 [kg/s]
Outflow= -3.251018e-09 [kg/s]
Energy Inflow   = -0.00085887971 [W]
Energy Outflow  = -0.00087237755 [W]
Energy Flow     = -1.3497845e-05 [W]

Iteration Number = 29

DILUPBiCG:  Solving for Ux, Initial residual = 0.018160187, Final residual = 3.818736e-10, No Iterations 2
DILUPBiCG:  Solving for Uy, Initial residual = 0.0030864822, Final residual = 1.2669932e-10, No Iterations 2
DILUPBiCG:  Solving for Uz, Initial residual = 0.013027537, Final residual = 1.7772478e-09, No Iterations 2
DILUPBiCG:  Solving for h, Initial residual = 0.0049805692, Final residual = 3.0577222e-11, No Iterations 2
DICPCG:  Solving for p_rgh, Initial residual = 0.0097086738, Final residual = 9.1417288e-07, No Iterations 34
time step continuity errors : sum local = 3.2903836e-06, global = 2.6684524e-07, cumulative = -5.4926139e-06
rho max/min : 1.1766117 1.0460261
ExecutionTime = 1.07 s  ClockTime = 1 s
Inflow=  -3.760605e-09 [kg/s]
Outflow= -3.5380557e-09 [kg/s]
Energy Inflow   = -0.0011349506 [W]
Energy Outflow  = -0.00095060794 [W]
Energy Flow     = 0.00018434263 [W]

Iteration Number = 30

DILUPBiCG:  Solving for Ux, Initial residual = 0.014964365, Final residual = 3.1002257e-10, No Iterations 2
DILUPBiCG:  Solving for Uy, Initial residual = 0.0028620402, Final residual = 1.2963015e-10, No Iterations 2
DILUPBiCG:  Solving for Uz, Initial residual = 0.012672196, Final residual = 1.5545847e-09, No Iterations 2
DILUPBiCG:  Solving for h, Initial residual = 0.0048627249, Final residual = 3.3084489e-11, No Iterations 2
DICPCG:  Solving for G, Initial residual = 0.98781439, Final residual = 0.0056942762, No Iterations 1001
DICPCG:  Solving for p_rgh, Initial residual = 0.0091816497, Final residual = 8.8912704e-07, No Iterations 33
time step continuity errors : sum local = 3.2392693e-06, global = 3.6568138e-07, cumulative = -5.1269326e-06
rho max/min : 1.1766117 1.044941
ExecutionTime = 1.19 s  ClockTime = 1 s
Inflow=  -4.1457857e-09 [kg/s]
Outflow= -3.8408072e-09 [kg/s]
Energy Inflow   = -0.0012511981 [W]
Energy Outflow  = -0.0010331915 [W]
Energy Flow     = 0.0002180066 [W]

Iteration Number = 31

DILUPBiCG:  Solving for Ux, Initial residual = 0.013367759, Final residual = 3.312508e-10, No Iterations 2
DILUPBiCG:  Solving for Uy, Initial residual = 0.0026554307, Final residual = 1.5675806e-10, No Iterations 2
DILUPBiCG:  Solving for Uz, Initial residual = 0.012335775, Final residual = 1.3913872e-09, No Iterations 2
DILUPBiCG:  Solving for h, Initial residual = 0.0044881807, Final residual = 7.3633595e-11, No Iterations 2
DICPCG:  Solving for p_rgh, Initial residual = 0.011808024, Final residual = 1.0124145e-06, No Iterations 13
time step continuity errors : sum local = 3.6971569e-06, global = -3.6677406e-07, cumulative = -5.4937066e-06
rho max/min : 1.1766117 1.0451776
ExecutionTime = 1.23 s  ClockTime = 1 s
Inflow=  -3.8469477e-09 [kg/s]
Outflow= -4.1528367e-09 [kg/s]
Energy Inflow   = -0.0011610088 [W]
Energy Outflow  = -0.001118372 [W]
Energy Flow     = 4.2636791e-05 [W]

Iteration Number = 32

DILUPBiCG:  Solving for Ux, Initial residual = 0.046515894, Final residual = 1.7770059e-06, No Iterations 1
DILUPBiCG:  Solving for Uy, Initial residual = 0.0030486703, Final residual = 1.7175914e-10, No Iterations 2
DILUPBiCG:  Solving for Uz, Initial residual = 0.012014636, Final residual = 1.3301625e-09, No Iterations 2
DILUPBiCG:  Solving for h, Initial residual = 0.0043973769, Final residual = 5.7168039e-11, No Iterations 2
DICPCG:  Solving for p_rgh, Initial residual = 0.011997455, Final residual = 1.1564221e-06, No Iterations 29
time step continuity errors : sum local = 4.267137e-06, global = -4.6647822e-07, cumulative = -5.9601848e-06
rho max/min : 1.1766117 1.0445397
ExecutionTime = 1.26 s  ClockTime = 1 s
Inflow=  -4.0868735e-09 [kg/s]
Outflow= -4.4759157e-09 [kg/s]
Energy Inflow   = -0.0012334184 [W]
Energy Outflow  = -0.0012065032 [W]
Energy Flow     = 2.6915236e-05 [W]

Iteration Number = 33

DILUPBiCG:  Solving for Ux, Initial residual = 0.024575934, Final residual = 1.6315936e-06, No Iterations 1
DILUPBiCG:  Solving for Uy, Initial residual = 0.0033639816, Final residual = 1.9831289e-10, No Iterations 2
DILUPBiCG:  Solving for Uz, Initial residual = 0.01170597, Final residual = 1.262344e-09, No Iterations 2
DILUPBiCG:  Solving for h, Initial residual = 0.0043103234, Final residual = 5.2489298e-11, No Iterations 2
DICPCG:  Solving for p_rgh, Initial residual = 0.011045299, Final residual = 5.7051487e-07, No Iterations 72
time step continuity errors : sum local = 2.1611144e-06, global = -8.0238952e-09, cumulative = -5.9682087e-06
rho max/min : 1.1766117 1.0438441
ExecutionTime = 1.29 s  ClockTime = 1 s
Inflow=  -4.806928e-09 [kg/s]
Outflow= -4.8136196e-09 [kg/s]
Energy Inflow   = -0.0014507309 [W]
Energy Outflow  = -0.0012986632 [W]
Energy Flow     = 0.00015206764 [W]

Iteration Number = 34

DILUPBiCG:  Solving for Ux, Initial residual = 0.012305363, Final residual = 5.032101e-10, No Iterations 2
DILUPBiCG:  Solving for Uy, Initial residual = 0.0028988515, Final residual = 1.8796465e-10, No Iterations 2
DILUPBiCG:  Solving for Uz, Initial residual = 0.011472809, Final residual = 1.4086574e-09, No Iterations 2
DILUPBiCG:  Solving for h, Initial residual = 0.0042268676, Final residual = 5.1882538e-11, No Iterations 2
DICPCG:  Solving for p_rgh, Initial residual = 0.0099028441, Final residual = 8.8945979e-07, No Iterations 15
time step continuity errors : sum local = 3.3158061e-06, global = -8.4185928e-07, cumulative = -6.810068e-06
rho max/min : 1.1766117 1.0430989
ExecutionTime = 1.32 s  ClockTime = 1 s
Inflow=  -4.4558947e-09 [kg/s]
Outflow= -5.1580045e-09 [kg/s]
Energy Inflow   = -0.001344789 [W]
Energy Outflow  = -0.0013924446 [W]
Energy Flow     = -4.7655585e-05 [W]

Iteration Number = 35

DILUPBiCG:  Solving for Ux, Initial residual = 0.021078567, Final residual = 3.8885367e-10, No Iterations 2
DILUPBiCG:  Solving for Uy, Initial residual = 0.0027133484, Final residual = 1.9832525e-10, No Iterations 2
DILUPBiCG:  Solving for Uz, Initial residual = 0.011202027, Final residual = 1.3595297e-09, No Iterations 2
DILUPBiCG:  Solving for h, Initial residual = 0.004146933, Final residual = 5.3264206e-11, No Iterations 2
DICPCG:  Solving for p_rgh, Initial residual = 0.0089782024, Final residual = 8.7211461e-07, No Iterations 34
time step continuity errors : sum local = 3.2917545e-06, global = -5.9956483e-07, cumulative = -7.4096328e-06
rho max/min : 1.1766117 1.0423194
ExecutionTime = 1.35 s  ClockTime = 1 s
Inflow=  -5.0242074e-09 [kg/s]
Outflow= -5.5242437e-09 [kg/s]
Energy Inflow   = -0.0015163058 [W]
Energy Outflow  = -0.0014924119 [W]
Energy Flow     = 2.3893885e-05 [W]

Iteration Number = 36

DILUPBiCG:  Solving for Ux, Initial residual = 0.022817088, Final residual = 4.4592674e-10, No Iterations 2
DILUPBiCG:  Solving for Uy, Initial residual = 0.0025240433, Final residual = 2.4361833e-10, No Iterations 2
DILUPBiCG:  Solving for Uz, Initial residual = 0.010950868, Final residual = 1.3228081e-09, No Iterations 2
DILUPBiCG:  Solving for h, Initial residual = 0.0040703369, Final residual = 5.5677436e-11, No Iterations 2
DICPCG:  Solving for p_rgh, Initial residual = 0.0083163874, Final residual = 5.8136905e-07, No Iterations 72
time step continuity errors : sum local = 2.2355921e-06, global = -7.2608065e-09, cumulative = -7.4168936e-06
rho max/min : 1.1766117 1.0415166
ExecutionTime = 1.38 s  ClockTime = 1 s
Inflow=  -5.900619e-09 [kg/s]
Outflow= -5.9066742e-09 [kg/s]
Energy Inflow   = -0.0017808068 [W]
Energy Outflow  = -0.0015968436 [W]
Energy Flow     = 0.00018396321 [W]

Iteration Number = 37

DILUPBiCG:  Solving for Ux, Initial residual = 0.020265064, Final residual = 4.4012295e-10, No Iterations 2
DILUPBiCG:  Solving for Uy, Initial residual = 0.002231505, Final residual = 2.1326076e-10, No Iterations 2
DILUPBiCG:  Solving for Uz, Initial residual = 0.010760303, Final residual = 1.4388193e-09, No Iterations 2
DILUPBiCG:  Solving for h, Initial residual = 0.0039968697, Final residual = 5.8667962e-11, No Iterations 2
DICPCG:  Solving for p_rgh, Initial residual = 0.0078314048, Final residual = 6.5238356e-07, No Iterations 19
time step continuity errors : sum local = 2.4999642e-06, global = -4.3546174e-07, cumulative = -7.8523554e-06
rho max/min : 1.1766117 1.0406983
ExecutionTime = 1.41 s  ClockTime = 1 s
Inflow=  -5.9333149e-09 [kg/s]
Outflow= -6.2964894e-09 [kg/s]
Energy Inflow   = -0.0017906744 [W]
Energy Outflow  = -0.0017030715 [W]
Energy Flow     = 8.7602917e-05 [W]

Iteration Number = 38

DILUPBiCG:  Solving for Ux, Initial residual = 0.016531207, Final residual = 3.8133596e-10, No Iterations 2
DILUPBiCG:  Solving for Uy, Initial residual = 0.0022020122, Final residual = 2.1628884e-10, No Iterations 2
DILUPBiCG:  Solving for Uz, Initial residual = 0.010534471, Final residual = 1.4024194e-09, No Iterations 2
DILUPBiCG:  Solving for h, Initial residual = 0.0039264311, Final residual = 6.1990759e-11, No Iterations 2
DICPCG:  Solving for p_rgh, Initial residual = 0.00743904, Final residual = 7.3693528e-07, No Iterations 36
time step continuity errors : sum local = 2.8249992e-06, global = -3.168335e-07, cumulative = -8.1691889e-06
rho max/min : 1.1766117 1.0398704
ExecutionTime = 1.44 s  ClockTime = 1 s
Inflow=  -6.4434027e-09 [kg/s]
Outflow= -6.7076414e-09 [kg/s]
Energy Inflow   = -0.0019446189 [W]
Energy Outflow  = -0.001815296 [W]
Energy Flow     = 0.00012932294 [W]

Iteration Number = 39

DILUPBiCG:  Solving for Ux, Initial residual = 0.013557782, Final residual = 5.4592069e-10, No Iterations 2
DILUPBiCG:  Solving for Uy, Initial residual = 0.0020686604, Final residual = 2.3223158e-10, No Iterations 2
DILUPBiCG:  Solving for Uz, Initial residual = 0.010320249, Final residual = 1.3682802e-09, No Iterations 2
DILUPBiCG:  Solving for h, Initial residual = 0.0038588385, Final residual = 6.5470524e-11, No Iterations 2
DICPCG:  Solving for p_rgh, Initial residual = 0.0070943168, Final residual = 5.8178391e-07, No Iterations 72
time step continuity errors : sum local = 2.2747914e-06, global = -6.8674955e-09, cumulative = -8.1760564e-06
rho max/min : 1.1766117 1.0390373
ExecutionTime = 1.47 s  ClockTime = 1 s
Inflow=  -7.1287579e-09 [kg/s]
Outflow= -7.1344851e-09 [kg/s]
Energy Inflow   = -0.0021514591 [W]
Energy Outflow  = -0.0019318023 [W]
Energy Flow     = 0.00021965678 [W]

Iteration Number = 40

DILUPBiCG:  Solving for Ux, Initial residual = 0.011693448, Final residual = 6.5315816e-10, No Iterations 2
DILUPBiCG:  Solving for Uy, Initial residual = 0.0020704929, Final residual = 2.4950865e-10, No Iterations 2
DILUPBiCG:  Solving for Uz, Initial residual = 0.01014343, Final residual = 1.4155231e-09, No Iterations 2
DILUPBiCG:  Solving for h, Initial residual = 0.00379377, Final residual = 6.9066502e-11, No Iterations 2
DICPCG:  Solving for G, Initial residual = 0.93468116, Final residual = 0.086678263, No Iterations 1001
DICPCG:  Solving for p_rgh, Initial residual = 0.0067831328, Final residual = 6.5711077e-07, No Iterations 21
time step continuity errors : sum local = 2.5567138e-06, global = -5.1019754e-07, cumulative = -8.6862539e-06
rho max/min : 1.1766117 1.0382022
ExecutionTime = 1.6 s  ClockTime = 2 s
Inflow=  -7.1403759e-09 [kg/s]
Outflow= -7.5658802e-09 [kg/s]
Energy Inflow   = -0.0021549655 [W]
Energy Outflow  = -0.0020492167 [W]
Energy Flow     = 0.00010574872 [W]

Iteration Number = 41

DILUPBiCG:  Solving for Ux, Initial residual = 0.010605665, Final residual = 6.7615017e-10, No Iterations 2
DILUPBiCG:  Solving for Uy, Initial residual = 0.0018620561, Final residual = 2.2249977e-10, No Iterations 2
DILUPBiCG:  Solving for Uz, Initial residual = 0.009953239, Final residual = 1.4073948e-09, No Iterations 2
DILUPBiCG:  Solving for h, Initial residual = 0.0035344736, Final residual = 1.7185913e-10, No Iterations 2
DICPCG:  Solving for p_rgh, Initial residual = 0.0089294415, Final residual = 8.7095178e-07, No Iterations 45
time step continuity errors : sum local = 3.4031081e-06, global = -4.5297034e-07, cumulative = -9.1392243e-06
rho max/min : 1.1766117 1.0385291
ExecutionTime = 1.64 s  ClockTime = 2 s
Inflow=  -7.6394163e-09 [kg/s]
Outflow= -8.0171931e-09 [kg/s]
Energy Inflow   = -0.0023055758 [W]
Energy Outflow  = -0.0021723911 [W]
Energy Flow     = 0.00013318475 [W]

Iteration Number = 42

DILUPBiCG:  Solving for Ux, Initial residual = 0.049055246, Final residual = 2.8162546e-06, No Iterations 1
DILUPBiCG:  Solving for Uy, Initial residual = 0.0023237832, Final residual = 2.5855817e-10, No Iterations 2
DILUPBiCG:  Solving for Uz, Initial residual = 0.0097658274, Final residual = 1.4036787e-09, No Iterations 2
DILUPBiCG:  Solving for h, Initial residual = 0.003480464, Final residual = 1.2843881e-10, No Iterations 2
DICPCG:  Solving for p_rgh, Initial residual = 0.0091270395, Final residual = 5.740206e-07, No Iterations 72
time step continuity errors : sum local = 2.2722709e-06, global = -3.6704687e-09, cumulative = -9.1428947e-06
rho max/min : 1.1766117 1.0380824
ExecutionTime = 1.67 s  ClockTime = 2 s
Inflow=  -8.4816115e-09 [kg/s]
Outflow= -8.4846725e-09 [kg/s]
Energy Inflow   = -0.0025597504 [W]
Energy Outflow  = -0.0022999817 [W]
Energy Flow     = 0.00025976869 [W]

Iteration Number = 43

DILUPBiCG:  Solving for Ux, Initial residual = 0.025053388, Final residual = 2.280642e-06, No Iterations 1
DILUPBiCG:  Solving for Uy, Initial residual = 0.0025229456, Final residual = 3.035649e-10, No Iterations 2
DILUPBiCG:  Solving for Uz, Initial residual = 0.0096275306, Final residual = 1.5052694e-09, No Iterations 2
DILUPBiCG:  Solving for h, Initial residual = 0.0034273638, Final residual = 1.1500296e-10, No Iterations 2
DICPCG:  Solving for p_rgh, Initial residual = 0.0084500164, Final residual = 6.9617589e-07, No Iterations 19
time step continuity errors : sum local = 2.7412808e-06, global = -4.807031e-07, cumulative = -9.6235978e-06
rho max/min : 1.1766117 1.0375806
ExecutionTime = 1.7 s  ClockTime = 2 s
Inflow=  -8.5576853e-09 [kg/s]
Outflow= -8.9585913e-09 [kg/s]
Energy Inflow   = -0.0025827094 [W]
Energy Outflow  = -0.0024290502 [W]
Energy Flow     = 0.00015365926 [W]

Iteration Number = 44

DILUPBiCG:  Solving for Ux, Initial residual = 0.012630583, Final residual = 7.4160408e-10, No Iterations 2
DILUPBiCG:  Solving for Uy, Initial residual = 0.0022717137, Final residual = 2.9595059e-10, No Iterations 2
DILUPBiCG:  Solving for Uz, Initial residual = 0.0094554654, Final residual = 1.5093591e-09, No Iterations 2
DILUPBiCG:  Solving for h, Initial residual = 0.0033759323, Final residual = 1.1234472e-10, No Iterations 2
DICPCG:  Solving for p_rgh, Initial residual = 0.0076102767, Final residual = 6.9919784e-07, No Iterations 42
time step continuity errors : sum local = 2.7659674e-06, global = -3.3559414e-07, cumulative = -9.959192e-06
rho max/min : 1.1766117 1.0370315
ExecutionTime = 1.73 s  ClockTime = 2 s
Inflow=  -9.1729417e-09 [kg/s]
Outflow= -9.4528269e-09 [kg/s]
Energy Inflow   = -0.0027683938 [W]
Energy Outflow  = -0.0025637728 [W]
Energy Flow     = 0.00020462104 [W]

Iteration Number = 45

DILUPBiCG:  Solving for Ux, Initial residual = 0.022138018, Final residual = 5.620123e-10, No Iterations 2
DILUPBiCG:  Solving for Uy, Initial residual = 0.002235423, Final residual = 4.7190907e-10, No Iterations 2
DILUPBiCG:  Solving for Uz, Initial residual = 0.009286527, Final residual = 1.5140199e-09, No Iterations 2
DILUPBiCG:  Solving for h, Initial residual = 0.003326115, Final residual = 1.1464185e-10, No Iterations 2
DICPCG:  Solving for p_rgh, Initial residual = 0.0069455304, Final residual = 5.8510459e-07, No Iterations 72
time step continuity errors : sum local = 2.3424243e-06, global = -8.5144414e-09, cumulative = -9.9677064e-06
rho max/min : 1.1766117 1.036448
ExecutionTime = 1.77 s  ClockTime = 2 s
Inflow=  -9.9551558e-09 [kg/s]
Outflow= -9.9622567e-09 [kg/s]
Energy Inflow   = -0.003004466 [W]
Energy Outflow  = -0.0027025868 [W]
Energy Flow     = 0.00030187924 [W]

Iteration Number = 46

DILUPBiCG:  Solving for Ux, Initial residual = 0.022364083, Final residual = 6.1433163e-10, No Iterations 2
DILUPBiCG:  Solving for Uy, Initial residual = 0.0018789356, Final residual = 1.3864956e-09, No Iterations 2
DILUPBiCG:  Solving for Uz, Initial residual = 0.0091510002, Final residual = 1.5808294e-09, No Iterations 2
DILUPBiCG:  Solving for h, Initial residual = 0.0032778573, Final residual = 1.1973826e-10, No Iterations 2
DICPCG:  Solving for p_rgh, Initial residual = 0.0064872846, Final residual = 6.1484982e-07, No Iterations 23
time step continuity errors : sum local = 2.4589987e-06, global = -5.2995848e-07, cumulative = -1.0497665e-05
rho max/min : 1.1766117 1.0358397
ExecutionTime = 1.8 s  ClockTime = 2 s
Inflow=  -1.0034413e-08 [kg/s]
Outflow= -1.0476398e-08 [kg/s]
Energy Inflow   = -0.0030283858 [W]
Energy Outflow  = -0.0028423141 [W]
Energy Flow     = 0.00018607172 [W]

Iteration Number = 47

DILUPBiCG:  Solving for Ux, Initial residual = 0.019780941, Final residual = 8.331293e-10, No Iterations 2
DILUPBiCG:  Solving for Uy, Initial residual = 0.0019398072, Final residual = 3.7855663e-10, No Iterations 2
DILUPBiCG:  Solving for Uz, Initial residual = 0.0089950193, Final residual = 1.6021181e-09, No Iterations 2
DILUPBiCG:  Solving for h, Initial residual = 0.0032311555, Final residual = 1.2660572e-10, No Iterations 2
DICPCG:  Solving for p_rgh, Initial residual = 0.0061614288, Final residual = 5.90605e-07, No Iterations 72
time step continuity errors : sum local = 2.3863969e-06, global = -8.6566873e-09, cumulative = -1.0506322e-05
rho max/min : 1.1766117 1.0352136
ExecutionTime = 1.83 s  ClockTime = 2 s
Inflow=  -1.1003325e-08 [kg/s]
Outflow= -1.1010545e-08 [kg/s]
Energy Inflow   = -0.0033208035 [W]
Energy Outflow  = -0.002987558 [W]
Energy Flow     = 0.0003332455 [W]

Iteration Number = 48

DILUPBiCG:  Solving for Ux, Initial residual = 0.015962338, Final residual = 1.5325507e-09, No Iterations 2
DILUPBiCG:  Solving for Uy, Initial residual = 0.0017719802, Final residual = 3.8095528e-10, No Iterations 2
DILUPBiCG:  Solving for Uz, Initial residual = 0.0088632723, Final residual = 1.6621871e-09, No Iterations 2
DILUPBiCG:  Solving for h, Initial residual = 0.0031859056, Final residual = 1.3476316e-10, No Iterations 2
DICPCG:  Solving for p_rgh, Initial residual = 0.0059010452, Final residual = 5.4296007e-07, No Iterations 34
time step continuity errors : sum local = 2.210706e-06, global = -3.287434e-07, cumulative = -1.0835065e-05
rho max/min : 1.1766117 1.0345748
ExecutionTime = 1.86 s  ClockTime = 2 s
Inflow=  -1.127811e-08 [kg/s]
Outflow= -1.1552281e-08 [kg/s]
Energy Inflow   = -0.0034037335 [W]
Energy Outflow  = -0.0031345589 [W]
Energy Flow     = 0.00026917462 [W]

Iteration Number = 49

DILUPBiCG:  Solving for Ux, Initial residual = 0.013011569, Final residual = 3.1132081e-09, No Iterations 2
DILUPBiCG:  Solving for Uy, Initial residual = 0.0017474362, Final residual = 4.3748299e-10, No Iterations 2
DILUPBiCG:  Solving for Uz, Initial residual = 0.0087209957, Final residual = 1.6955449e-09, No Iterations 2
DILUPBiCG:  Solving for h, Initial residual = 0.0031420969, Final residual = 1.4402079e-10, No Iterations 2
DICPCG:  Solving for p_rgh, Initial residual = 0.0056748343, Final residual = 2.788026e-07, No Iterations 73
time step continuity errors : sum local = 1.1970459e-06, global = 2.2905547e-09, cumulative = -1.0832774e-05
rho max/min : 1.1766117 1.0339274
ExecutionTime = 1.89 s  ClockTime = 2 s
Inflow=  -1.2115799e-08 [kg/s]
Outflow= -1.2113889e-08 [kg/s]
Energy Inflow   = -0.0036565482 [W]
Energy Outflow  = -0.0032870097 [W]
Energy Flow     = 0.00036953849 [W]

Iteration Number = 50

DILUPBiCG:  Solving for Ux, Initial residual = 0.011220773, Final residual = 2.9175238e-09, No Iterations 2
DILUPBiCG:  Solving for Uy, Initial residual = 0.0017176006, Final residual = 5.1006401e-10, No Iterations 2
DILUPBiCG:  Solving for Uz, Initial residual = 0.0086029823, Final residual = 1.765489e-09, No Iterations 2
DILUPBiCG:  Solving for h, Initial residual = 0.0030996306, Final residual = 1.5431991e-10, No Iterations 2
DICPCG:  Solving for G, Initial residual = 0.9489208, Final residual = 73.414039, No Iterations 1001
DICPCG:  Solving for p_rgh, Initial residual = 0.0054736549, Final residual = 5.4440266e-07, No Iterations 34
time step continuity errors : sum local = 2.2390632e-06, global = -3.4529852e-07, cumulative = -1.1178073e-05
rho max/min : 1.1766117 1.0332741
ExecutionTime = 2.02 s  ClockTime = 2 s
Inflow=  -1.2396856e-08 [kg/s]
Outflow= -1.2684835e-08 [kg/s]
Energy Inflow   = -0.0037413711 [W]
Energy Outflow  = -0.003441718 [W]
Energy Flow     = 0.00029965318 [W]

Iteration Number = 51

DILUPBiCG:  Solving for Ux, Initial residual = 0.010091221, Final residual = 1.7960687e-09, No Iterations 2
DILUPBiCG:  Solving for Uy, Initial residual = 0.0017650153, Final residual = 4.4959535e-10, No Iterations 2
DILUPBiCG:  Solving for Uz, Initial residual = 0.008472334, Final residual = 1.8097307e-09, No Iterations 2
DILUPBiCG:  Solving for h, Initial residual = 0.002932681, Final residual = 3.8974969e-10, No Iterations 2
DICPCG:  Solving for p_rgh, Initial residual = 0.0069700602, Final residual = 5.8562891e-07, No Iterations 72
time step continuity errors : sum local = 2.3918022e-06, global = -5.1379637e-09, cumulative = -1.1183211e-05
rho max/min : 1.1766117 1.0334798
ExecutionTime = 2.05 s  ClockTime = 2 s
Inflow=  -1.3263645e-08 [kg/s]
Outflow= -1.326793e-08 [kg/s]
Energy Inflow   = -0.004002968 [W]
Energy Outflow  = -0.0035997244 [W]
Energy Flow     = 0.00040324361 [W]

Iteration Number = 52

DILUPBiCG:  Solving for Ux, Initial residual = 0.042032444, Final residual = 3.5169281e-06, No Iterations 1
DILUPBiCG:  Solving for Uy, Initial residual = 0.0017499994, Final residual = 4.6885865e-10, No Iterations 2
DILUPBiCG:  Solving for Uz, Initial residual = 0.0083611927, Final residual = 1.8744493e-09, No Iterations 2
DILUPBiCG:  Solving for h, Initial residual = 0.0028972194, Final residual = 2.9658085e-10, No Iterations 2
DICPCG:  Solving for p_rgh, Initial residual = 0.007116342, Final residual = 6.8332156e-07, No Iterations 31
time step continuity errors : sum local = 2.7852775e-06, global = -4.2528541e-07, cumulative = -1.1608496e-05
rho max/min : 1.1766117 1.0331077
ExecutionTime = 2.08 s  ClockTime = 2 s
Inflow=  -1.3501062e-08 [kg/s]
Outflow= -1.3855749e-08 [kg/s]
Energy Inflow   = -0.0040746204 [W]
Energy Outflow  = -0.00375859 [W]
Energy Flow     = 0.0003160304 [W]

Iteration Number = 53

DILUPBiCG:  Solving for Ux, Initial residual = 0.021222649, Final residual = 1.9738367e-09, No Iterations 2
DILUPBiCG:  Solving for Uy, Initial residual = 0.0019106626, Final residual = 4.6175834e-10, No Iterations 2
DILUPBiCG:  Solving for Uz, Initial residual = 0.00823631, Final residual = 1.9179481e-09, No Iterations 2
DILUPBiCG:  Solving for h, Initial residual = 0.002862624, Final residual = 2.7543034e-10, No Iterations 2
DICPCG:  Solving for p_rgh, Initial residual = 0.006611214, Final residual = 5.8545133e-07, No Iterations 72
time step continuity errors : sum local = 2.4151285e-06, global = -4.0989082e-09, cumulative = -1.1612595e-05
rho max/min : 1.1766117 1.0326917
ExecutionTime = 2.12 s  ClockTime = 2 s
Inflow=  -1.4458059e-08 [kg/s]
Outflow= -1.4461478e-08 [kg/s]
Energy Inflow   = -0.0043634422 [W]
Energy Outflow  = -0.0039222871 [W]
Energy Flow     = 0.00044115514 [W]

Iteration Number = 54

DILUPBiCG:  Solving for Ux, Initial residual = 0.012246193, Final residual = 1.0735795e-09, No Iterations 2
DILUPBiCG:  Solving for Uy, Initial residual = 0.0018756935, Final residual = 5.631983e-10, No Iterations 2
DILUPBiCG:  Solving for Uz, Initial residual = 0.0081332825, Final residual = 1.9910708e-09, No Iterations 2
DILUPBiCG:  Solving for h, Initial residual = 0.0028288616, Final residual = 2.8022783e-10, No Iterations 2
DICPCG:  Solving for p_rgh, Initial residual = 0.0059948153, Final residual = 5.8532564e-07, No Iterations 32
time step continuity errors : sum local = 2.4231876e-06, global = -4.2700377e-07, cumulative = -1.2039599e-05
rho max/min : 1.1766117 1.0322379
ExecutionTime = 2.15 s  ClockTime = 2 s
Inflow=  -1.4716052e-08 [kg/s]
Outflow= -1.5072173e-08 [kg/s]
Energy Inflow   = -0.0044413044 [W]
Energy Outflow  = -0.0040868952 [W]
Energy Flow     = 0.00035440923 [W]

Iteration Number = 55

DILUPBiCG:  Solving for Ux, Initial residual = 0.020360482, Final residual = 9.0993207e-10, No Iterations 2
DILUPBiCG:  Solving for Uy, Initial residual = 0.0018171646, Final residual = 5.7928646e-10, No Iterations 2
DILUPBiCG:  Solving for Uz, Initial residual = 0.0080194249, Final residual = 2.0470119e-09, No Iterations 2
DILUPBiCG:  Solving for h, Initial residual = 0.0027959668, Final residual = 2.9979177e-10, No Iterations 2
DICPCG:  Solving for p_rgh, Initial residual = 0.005501703, Final residual = 2.6891345e-07, No Iterations 73
time step continuity errors : sum local = 1.1960786e-06, global = -3.382898e-10, cumulative = -1.2039937e-05
rho max/min : 1.1766117 1.0317563
ExecutionTime = 2.19 s  ClockTime = 2 s
Inflow=  -1.5699711e-08 [kg/s]
Outflow= -1.5699993e-08 [kg/s]
Energy Inflow   = -0.0047381726 [W]
Energy Outflow  = -0.0042560653 [W]
Energy Flow     = 0.00048210737 [W]

Iteration Number = 56

DILUPBiCG:  Solving for Ux, Initial residual = 0.019522983, Final residual = 1.171715e-09, No Iterations 2
DILUPBiCG:  Solving for Uy, Initial residual = 0.0016332781, Final residual = 7.3976294e-10, No Iterations 2
DILUPBiCG:  Solving for Uz, Initial residual = 0.0079263226, Final residual = 2.128752e-09, No Iterations 2
DILUPBiCG:  Solving for h, Initial residual = 0.0027638904, Final residual = 3.3010807e-10, No Iterations 2
DICPCG:  Solving for p_rgh, Initial residual = 0.005168686, Final residual = 4.9475993e-07, No Iterations 43
time step continuity errors : sum local = 2.0841538e-06, global = -2.9032171e-07, cumulative = -1.2330259e-05
rho max/min : 1.1766117 1.031254
ExecutionTime = 2.21 s  ClockTime = 2 s
Inflow=  -1.6092135e-08 [kg/s]
Outflow= -1.6334263e-08 [kg/s]
Energy Inflow   = -0.0048566062 [W]
Energy Outflow  = -0.0044265589 [W]
Energy Flow     = 0.00043004724 [W]

Iteration Number = 57

DILUPBiCG:  Solving for Ux, Initial residual = 0.017142244, Final residual = 2.1187454e-09, No Iterations 2
DILUPBiCG:  Solving for Uy, Initial residual = 0.0016794935, Final residual = 6.9351665e-10, No Iterations 2
DILUPBiCG:  Solving for Uz, Initial residual = 0.0078213294, Final residual = 2.1987104e-09, No Iterations 2
DILUPBiCG:  Solving for h, Initial residual = 0.0027326483, Final residual = 3.7078625e-10, No Iterations 2
DICPCG:  Solving for p_rgh, Initial residual = 0.0049531499, Final residual = 2.6088318e-07, No Iterations 73
time step continuity errors : sum local = 1.154577e-06, global = 9.2874814e-09, cumulative = -1.2320972e-05
rho max/min : 1.1766117 1.0307364
ExecutionTime = 2.25 s  ClockTime = 2 s
Inflow=  -1.6986675e-08 [kg/s]
Outflow= -1.6978929e-08 [kg/s]
Energy Inflow   = -0.0051265784 [W]
Energy Outflow  = -0.004599552 [W]
Energy Flow     = 0.00052702641 [W]

Iteration Number = 58

DILUPBiCG:  Solving for Ux, Initial residual = 0.013869112, Final residual = 9.2065656e-09, No Iterations 2
DILUPBiCG:  Solving for Uy, Initial residual = 0.0015626788, Final residual = 6.954329e-10, No Iterations 2
DILUPBiCG:  Solving for Uz, Initial residual = 0.0077359554, Final residual = 2.2934399e-09, No Iterations 2
DILUPBiCG:  Solving for h, Initial residual = 0.0027021808, Final residual = 4.2345028e-10, No Iterations 2
DICPCG:  Solving for p_rgh, Initial residual = 0.0047827815, Final residual = 4.6596958e-07, No Iterations 45
time step continuity errors : sum local = 1.9857393e-06, global = -2.8132065e-07, cumulative = -1.2602292e-05
rho max/min : 1.1766117 1.0302075
ExecutionTime = 2.28 s  ClockTime = 2 s
Inflow=  -1.7393224e-08 [kg/s]
Outflow= -1.7627845e-08 [kg/s]
Energy Inflow   = -0.005249275 [W]
Energy Outflow  = -0.0047731741 [W]
Energy Flow     = 0.00047610092 [W]

Iteration Number = 59

DILUPBiCG:  Solving for Ux, Initial residual = 0.011416074, Final residual = 9.2772884e-08, No Iterations 2
DILUPBiCG:  Solving for Uy, Initial residual = 0.0016291061, Final residual = 1.2873841e-09, No Iterations 2
DILUPBiCG:  Solving for Uz, Initial residual = 0.0076386309, Final residual = 2.3790035e-09, No Iterations 2
DILUPBiCG:  Solving for h, Initial residual = 0.0026725034, Final residual = 4.9357451e-10, No Iterations 2
DICPCG:  Solving for p_rgh, Initial residual = 0.0046342715, Final residual = 2.5723345e-07, No Iterations 73
time step continuity errors : sum local = 1.1445927e-06, global = 4.5068766e-09, cumulative = -1.2597785e-05
rho max/min : 1.1766117 1.0296703
ExecutionTime = 2.31 s  ClockTime = 2 s
Inflow=  -1.8290232e-08 [kg/s]
Outflow= -1.8286474e-08 [kg/s]
Energy Inflow   = -0.0055199921 [W]
Energy Outflow  = -0.0049490575 [W]
Energy Flow     = 0.0005709346 [W]

Iteration Number = 60

DILUPBiCG:  Solving for Ux, Initial residual = 0.0099354307, Final residual = 1.0365377e-08, No Iterations 2
DILUPBiCG:  Solving for Uy, Initial residual = 0.0015375525, Final residual = 6.1517517e-10, No Iterations 2
DILUPBiCG:  Solving for Uz, Initial residual = 0.007557945, Final residual = 2.4844934e-09, No Iterations 2
DILUPBiCG:  Solving for h, Initial residual = 0.0026435561, Final residual = 5.8586841e-10, No Iterations 2
DICPCG:  Solving for G, Initial residual = 0.99955595, Final residual = 8.3703557e-05, No Iterations 62
DICPCG:  Solving for p_rgh, Initial residual = 0.0045021707, Final residual = 4.3274243e-07, No Iterations 50
time step continuity errors : sum local = 1.8641368e-06, global = -2.5967797e-07, cumulative = -1.2857463e-05
rho max/min : 1.1766117 1.0291272
ExecutionTime = 2.36 s  ClockTime = 2 s
Inflow=  -1.8732355e-08 [kg/s]
Outflow= -1.8948926e-08 [kg/s]
Energy Inflow   = -0.0056534246 [W]
Energy Outflow  = -0.0051254087 [W]
Energy Flow     = 0.00052801595 [W]

Iteration Number = 61

DILUPBiCG:  Solving for Ux, Initial residual = 0.0093863985, Final residual = 4.2008145e-09, No Iterations 2
DILUPBiCG:  Solving for Uy, Initial residual = 0.0015299079, Final residual = 2.2350815e-09, No Iterations 2
DILUPBiCG:  Solving for Uz, Initial residual = 0.0074641614, Final residual = 2.5837723e-09, No Iterations 2
DILUPBiCG:  Solving for h, Initial residual = 0.0025197937, Final residual = 4.9066957e-09, No Iterations 2
DICPCG:  Solving for p_rgh, Initial residual = 0.0057163655, Final residual = 2.5378841e-07, No Iterations 73
time step continuity errors : sum local = 1.1547717e-06, global = 3.0682682e-09, cumulative = -1.2854395e-05
rho max/min : 1.1766117 1.0293136
ExecutionTime = 2.4 s  ClockTime = 2 s
Inflow=  -1.9621516e-08 [kg/s]
Outflow= -1.9618957e-08 [kg/s]
Energy Inflow   = -0.0059217734 [W]
Energy Outflow  = -0.0053035527 [W]
Energy Flow     = 0.00061822063 [W]

Iteration Number = 62

DILUPBiCG:  Solving for Ux, Initial residual = 0.039783484, Final residual = 2.4137349e-09, No Iterations 2
DILUPBiCG:  Solving for Uy, Initial residual = 0.0015528085, Final residual = 7.416643e-10, No Iterations 2
DILUPBiCG:  Solving for Uz, Initial residual = 0.0073844563, Final residual = 2.6816523e-09, No Iterations 2
DILUPBiCG:  Solving for h, Initial residual = 0.0024950863, Final residual = 1.7428701e-09, No Iterations 2
DICPCG:  Solving for p_rgh, Initial residual = 0.0058520612, Final residual = 5.6043486e-07, No Iterations 39
time step continuity errors : sum local = 2.4049711e-06, global = -3.7728794e-07, cumulative = -1.3231683e-05
rho max/min : 1.1766117 1.0290073
ExecutionTime = 2.43 s  ClockTime = 2 s
Inflow=  -1.997675e-08 [kg/s]
Outflow= -2.0291408e-08 [kg/s]
Energy Inflow   = -0.0060289832 [W]
Energy Outflow  = -0.0054817293 [W]
Energy Flow     = 0.00054725392 [W]

Iteration Number = 63

DILUPBiCG:  Solving for Ux, Initial residual = 0.019918035, Final residual = 3.5380474e-09, No Iterations 2
DILUPBiCG:  Solving for Uy, Initial residual = 0.0017750407, Final residual = 1.1310488e-09, No Iterations 2
DILUPBiCG:  Solving for Uz, Initial residual = 0.0072908982, Final residual = 2.7743464e-09, No Iterations 2
DILUPBiCG:  Solving for h, Initial residual = 0.002470853, Final residual = 1.5502301e-09, No Iterations 2
DICPCG:  Solving for p_rgh, Initial residual = 0.005465159, Final residual = 2.4933304e-07, No Iterations 73
time step continuity errors : sum local = 1.1537332e-06, global = 4.9277293e-09, cumulative = -1.3226755e-05
rho max/min : 1.1766117 1.0286623
ExecutionTime = 2.46 s  ClockTime = 2 s
Inflow=  -2.0973935e-08 [kg/s]
Outflow= -2.0969825e-08 [kg/s]
Energy Inflow   = -0.0063299335 [W]
Energy Outflow  = -0.005660998 [W]
Energy Flow     = 0.00066893546 [W]

Iteration Number = 64

DILUPBiCG:  Solving for Ux, Initial residual = 0.011646713, Final residual = 1.4373329e-09, No Iterations 2
DILUPBiCG:  Solving for Uy, Initial residual = 0.00176438, Final residual = 8.7252386e-10, No Iterations 2
DILUPBiCG:  Solving for Uz, Initial residual = 0.0072146178, Final residual = 2.8865174e-09, No Iterations 2
DILUPBiCG:  Solving for h, Initial residual = 0.0024470792, Final residual = 1.7894854e-09, No Iterations 2
DICPCG:  Solving for p_rgh, Initial residual = 0.0049900397, Final residual = 4.988653e-07, No Iterations 47
time step continuity errors : sum local = 2.1533558e-06, global = -2.9678253e-07, cumulative = -1.3523538e-05
rho max/min : 1.1766117 1.028284
ExecutionTime = 2.5 s  ClockTime = 2 s
Inflow=  -2.1401146e-08 [kg/s]
Outflow= -2.1648663e-08 [kg/s]
Energy Inflow   = -0.0064588659 [W]
Energy Outflow  = -0.005839668 [W]
Energy Flow     = 0.00061919788 [W]

Iteration Number = 65

DILUPBiCG:  Solving for Ux, Initial residual = 0.019289022, Final residual = 1.5382579e-09, No Iterations 2
DILUPBiCG:  Solving for Uy, Initial residual = 0.0018069922, Final residual = 8.9645964e-10, No Iterations 2
DILUPBiCG:  Solving for Uz, Initial residual = 0.0071278564, Final residual = 3.0028163e-09, No Iterations 2
DILUPBiCG:  Solving for h, Initial residual = 0.0024232647, Final residual = 2.4705959e-09, No Iterations 2
DICPCG:  Solving for p_rgh, Initial residual = 0.0046140312, Final residual = 2.4500698e-07, No Iterations 73
time step continuity errors : sum local = 1.131792e-06, global = -1.5595855e-09, cumulative = -1.3525097e-05
rho max/min : 1.1766117 1.0278809
ExecutionTime = 2.53 s  ClockTime = 3 s
Inflow=  -2.2330569e-08 [kg/s]
Outflow= -2.2331869e-08 [kg/s]
Energy Inflow   = -0.0067393655 [W]
Energy Outflow  = -0.0060189099 [W]
Energy Flow     = 0.00072045559 [W]

Iteration Number = 66

DILUPBiCG:  Solving for Ux, Initial residual = 0.018081405, Final residual = 2.093255e-09, No Iterations 2
DILUPBiCG:  Solving for Uy, Initial residual = 0.0017343936, Final residual = 1.2371051e-09, No Iterations 2
DILUPBiCG:  Solving for Uz, Initial residual = 0.0070571944, Final residual = 3.1483523e-09, No Iterations 2
DILUPBiCG:  Solving for h, Initial residual = 0.0023996062, Final residual = 4.3778476e-09, No Iterations 2
DICPCG:  Solving for p_rgh, Initial residual = 0.0043527906, Final residual = 4.2818226e-07, No Iterations 54
time step continuity errors : sum local = 1.8889832e-06, global = -2.6206934e-07, cumulative = -1.3787167e-05
rho max/min : 1.1766117 1.027459
ExecutionTime = 2.56 s  ClockTime = 3 s
Inflow=  -2.2794806e-08 [kg/s]
Outflow= -2.3013371e-08 [kg/s]
Energy Inflow   = -0.0068794723 [W]
Energy Outflow  = -0.0061968716 [W]
Energy Flow     = 0.00068260074 [W]

Iteration Number = 67

DILUPBiCG:  Solving for Ux, Initial residual = 0.015885363, Final residual = 4.4186841e-09, No Iterations 2
DILUPBiCG:  Solving for Uy, Initial residual = 0.0016821562, Final residual = 3.8852036e-09, No Iterations 2
DILUPBiCG:  Solving for Uz, Initial residual = 0.006976284, Final residual = 3.3017417e-09, No Iterations 2
DILUPBiCG:  Solving for h, Initial residual = 0.0023760209, Final residual = 2.0721991e-08, No Iterations 2
DICPCG:  Solving for p_rgh, Initial residual = 0.0041896688, Final residual = 2.4261578e-07, No Iterations 73
time step continuity errors : sum local = 1.1333952e-06, global = 1.4635234e-09, cumulative = -1.3785703e-05
rho max/min : 1.1766117 1.0270229
ExecutionTime = 2.59 s  ClockTime = 3 s
Inflow=  -2.3698231e-08 [kg/s]
Outflow= -2.369701e-08 [kg/s]
Energy Inflow   = -0.007152126 [W]
Energy Outflow  = -0.006374694 [W]
Energy Flow     = 0.00077743199 [W]

Iteration Number = 68

DILUPBiCG:  Solving for Ux, Initial residual = 0.012848595, Final residual = 1.1860633e-08, No Iterations 2
DILUPBiCG:  Solving for Uy, Initial residual = 0.0016448907, Final residual = 5.7067512e-09, No Iterations 2
DILUPBiCG:  Solving for Uz, Initial residual = 0.0069106348, Final residual = 3.4745668e-09, No Iterations 2
DILUPBiCG:  Solving for h, Initial residual = 0.0023529178, Final residual = 8.0266098e-09, No Iterations 2
DICPCG:  Solving for p_rgh, Initial residual = 0.0040802594, Final residual = 4.0431302e-07, No Iterations 58
time step continuity errors : sum local = 1.7865408e-06, global = -2.3189536e-07, cumulative = -1.4017598e-05
rho max/min : 1.1766117 1.026576
ExecutionTime = 2.62 s  ClockTime = 3 s
Inflow=  -2.418322e-08 [kg/s]
Outflow= -2.4376621e-08 [kg/s]
Energy Inflow   = -0.0072984958 [W]
Energy Outflow  = -0.0065504981 [W]
Energy Flow     = 0.00074799772 [W]

Iteration Number = 69

DILUPBiCG:  Solving for Ux, Initial residual = 0.010585278, Final residual = 1.0909759e-08, No Iterations 2
DILUPBiCG:  Solving for Uy, Initial residual = 0.0016209613, Final residual = 1.2547165e-09, No Iterations 2
DILUPBiCG:  Solving for Uz, Initial residual = 0.0068345756, Final residual = 3.6577162e-09, No Iterations 2
DILUPBiCG:  Solving for h, Initial residual = 0.0023303252, Final residual = 3.4807024e-09, No Iterations 2
DICPCG:  Solving for p_rgh, Initial residual = 0.003962169, Final residual = 2.389249e-07, No Iterations 73
time step continuity errors : sum local = 1.1229242e-06, global = 2.4895979e-10, cumulative = -1.401735e-05
rho max/min : 1.1766117 1.026121
ExecutionTime = 2.66 s  ClockTime = 3 s
Inflow=  -2.5055379e-08 [kg/s]
Outflow= -2.5055172e-08 [kg/s]
Energy Inflow   = -0.0075617135 [W]
Energy Outflow  = -0.0067251609 [W]
Energy Flow     = 0.00083655252 [W]

Iteration Number = 70

DILUPBiCG:  Solving for Ux, Initial residual = 0.0094219689, Final residual = 9.4259724e-08, No Iterations 2
DILUPBiCG:  Solving for Uy, Initial residual = 0.0015517447, Final residual = 1.0989265e-09, No Iterations 2
DILUPBiCG:  Solving for Uz, Initial residual = 0.0067732278, Final residual = 3.8589186e-09, No Iterations 2
DILUPBiCG:  Solving for h, Initial residual = 0.0023081963, Final residual = 2.2810282e-09, No Iterations 2
DICPCG:  Solving for G, Initial residual = 0.84542801, Final residual = 0.12214057, No Iterations 1001
DICPCG:  Solving for p_rgh, Initial residual = 0.0038439571, Final residual = 2.3676849e-07, No Iterations 73
time step continuity errors : sum local = 1.1183227e-06, global = 2.7188297e-09, cumulative = -1.4014631e-05
rho max/min : 1.1766117 1.0256597
ExecutionTime = 2.78 s  ClockTime = 3 s
Inflow=  -2.5729305e-08 [kg/s]
Outflow= -2.5727038e-08 [kg/s]
Energy Inflow   = -0.0077651043 [W]
Energy Outflow  = -0.0068969653 [W]
Energy Flow     = 0.00086813899 [W]

Iteration Number = 71

DILUPBiCG:  Solving for Ux, Initial residual = 0.0090399921, Final residual = 1.2635652e-08, No Iterations 2
DILUPBiCG:  Solving for Uy, Initial residual = 0.001634653, Final residual = 2.3509305e-09, No Iterations 2
DILUPBiCG:  Solving for Uz, Initial residual = 0.0067070015, Final residual = 4.0760036e-09, No Iterations 2
DILUPBiCG:  Solving for h, Initial residual = 0.002213621, Final residual = 1.2734335e-09, No Iterations 2
DICPCG:  Solving for p_rgh, Initial residual = 0.0047112073, Final residual = 4.6247181e-07, No Iterations 46
time step continuity errors : sum local = 2.0546547e-06, global = -2.7532308e-07, cumulative = -1.4289954e-05
rho max/min : 1.1766117 1.025813
ExecutionTime = 2.8 s  ClockTime = 3 s
Inflow=  -2.6162791e-08 [kg/s]
Outflow= -2.639241e-08 [kg/s]
Energy Inflow   = -0.0078959303 [W]
Energy Outflow  = -0.0070661542 [W]
Energy Flow     = 0.00082977604 [W]

Iteration Number = 72

DILUPBiCG:  Solving for Ux, Initial residual = 0.036741447, Final residual = 3.3330907e-09, No Iterations 2
DILUPBiCG:  Solving for Uy, Initial residual = 0.0016012881, Final residual = 1.4684215e-09, No Iterations 2
DILUPBiCG:  Solving for Uz, Initial residual = 0.0066360658, Final residual = 4.2772693e-09, No Iterations 2
DILUPBiCG:  Solving for h, Initial residual = 0.0021942922, Final residual = 1.758298e-09, No Iterations 2
DICPCG:  Solving for p_rgh, Initial residual = 0.0048331139, Final residual = 2.3538806e-07, No Iterations 73
time step continuity errors : sum local = 1.1237531e-06, global = 3.127774e-09, cumulative = -1.4286826e-05
rho max/min : 1.1766117 1.0255493
ExecutionTime = 2.84 s  ClockTime = 3 s
Inflow=  -2.7056199e-08 [kg/s]
Outflow= -2.705359e-08 [kg/s]
Energy Inflow   = -0.0081655607 [W]
Energy Outflow  = -0.0072332185 [W]
Energy Flow     = 0.0009323422 [W]

Iteration Number = 73

DILUPBiCG:  Solving for Ux, Initial residual = 0.01831002, Final residual = 6.0426912e-09, No Iterations 2
DILUPBiCG:  Solving for Uy, Initial residual = 0.001825203, Final residual = 1.1281164e-09, No Iterations 2
DILUPBiCG:  Solving for Uz, Initial residual = 0.006578327, Final residual = 4.494595e-09, No Iterations 2
DILUPBiCG:  Solving for h, Initial residual = 0.0021752669, Final residual = 1.9802922e-09, No Iterations 2
DICPCG:  Solving for p_rgh, Initial residual = 0.0045418894, Final residual = 2.3230398e-07, No Iterations 73
time step continuity errors : sum local = 1.1030387e-06, global = 6.7022835e-09, cumulative = -1.4280124e-05
rho max/min : 1.1766117 1.0252519
ExecutionTime = 2.87 s  ClockTime = 3 s
Inflow=  -2.7708388e-08 [kg/s]
Outflow= -2.7702798e-08 [kg/s]
Energy Inflow   = -0.0083623913 [W]
Energy Outflow  = -0.0073957969 [W]
Energy Flow     = 0.00096659441 [W]

Iteration Number = 74

DILUPBiCG:  Solving for Ux, Initial residual = 0.011352423, Final residual = 1.8925008e-09, No Iterations 2
DILUPBiCG:  Solving for Uy, Initial residual = 0.0017396697, Final residual = 1.1085836e-09, No Iterations 2
DILUPBiCG:  Solving for Uz, Initial residual = 0.0065172599, Final residual = 4.7316664e-09, No Iterations 2
DILUPBiCG:  Solving for h, Initial residual = 0.0021565725, Final residual = 1.9170833e-09, No Iterations 2
DICPCG:  Solving for p_rgh, Initial residual = 0.0041803655, Final residual = 3.9982383e-07, No Iterations 50
time step continuity errors : sum local = 1.8012997e-06, global = -2.4875862e-07, cumulative = -1.4528882e-05
rho max/min : 1.1766117 1.0249256
ExecutionTime = 2.91 s  ClockTime = 3 s
Inflow=  -2.8133727e-08 [kg/s]
Outflow= -2.8341191e-08 [kg/s]
Energy Inflow   = -0.0084907587 [W]
Energy Outflow  = -0.0075542184 [W]
Energy Flow     = 0.00093654023 [W]

Iteration Number = 75

DILUPBiCG:  Solving for Ux, Initial residual = 0.018100937, Final residual = 2.4737055e-09, No Iterations 2
DILUPBiCG:  Solving for Uy, Initial residual = 0.0016352333, Final residual = 4.4985793e-09, No Iterations 2
DILUPBiCG:  Solving for Uz, Initial residual = 0.0064526631, Final residual = 4.9892081e-09, No Iterations 2
DILUPBiCG:  Solving for h, Initial residual = 0.0021382132, Final residual = 1.7395517e-09, No Iterations 2
DICPCG:  Solving for p_rgh, Initial residual = 0.0038961368, Final residual = 2.2951033e-07, No Iterations 73
time step continuity errors : sum local = 1.0974186e-06, global = 5.1202808e-09, cumulative = -1.4523762e-05
rho max/min : 1.1766117 1.0245774
ExecutionTime = 2.94 s  ClockTime = 3 s
Inflow=  -2.8974861e-08 [kg/s]
Outflow= -2.8970591e-08 [kg/s]
Energy Inflow   = -0.0087446129 [W]
Energy Outflow  = -0.0077090092 [W]
Energy Flow     = 0.0010356037 [W]

Iteration Number = 76

DILUPBiCG:  Solving for Ux, Initial residual = 0.016725254, Final residual = 3.2198866e-09, No Iterations 2
DILUPBiCG:  Solving for Uy, Initial residual = 0.0015919467, Final residual = 1.1541101e-09, No Iterations 2
DILUPBiCG:  Solving for Uz, Initial residual = 0.006400899, Final residual = 5.2752801e-09, No Iterations 2
DILUPBiCG:  Solving for h, Initial residual = 0.0021201657, Final residual = 1.5613836e-09, No Iterations 2
DICPCG:  Solving for p_rgh, Initial residual = 0.003728225, Final residual = 2.2790981e-07, No Iterations 73
time step continuity errors : sum local = 1.1048069e-06, global = 3.4850456e-09, cumulative = -1.4520277e-05
rho max/min : 1.1766117 1.0242126
ExecutionTime = 2.97 s  ClockTime = 3 s
Inflow=  -2.9586346e-08 [kg/s]
Outflow= -2.958344e-08 [kg/s]
Energy Inflow   = -0.0089291591 [W]
Energy Outflow  = -0.0078578668 [W]
Energy Flow     = 0.0010712923 [W]

Iteration Number = 77

DILUPBiCG:  Solving for Ux, Initial residual = 0.014682777, Final residual = 1.1747401e-08, No Iterations 2
DILUPBiCG:  Solving for Uy, Initial residual = 0.0016393796, Final residual = 1.3531631e-09, No Iterations 2
DILUPBiCG:  Solving for Uz, Initial residual = 0.0063452955, Final residual = 5.5965271e-09, No Iterations 2
DILUPBiCG:  Solving for h, Initial residual = 0.0021024498, Final residual = 1.4142828e-09, No Iterations 2
DICPCG:  Solving for p_rgh, Initial residual = 0.003657166, Final residual = 3.6315769e-07, No Iterations 55
time step continuity errors : sum local = 1.6659971e-06, global = -2.4613557e-07, cumulative = -1.4766413e-05
rho max/min : 1.1766117 1.0238349
ExecutionTime = 3 s  ClockTime = 3 s
Inflow=  -2.9974839e-08 [kg/s]
Outflow= -3.0180116e-08 [kg/s]
Energy Inflow   = -0.0090464062 [W]
Energy Outflow  = -0.0080008843 [W]
Energy Flow     = 0.0010455219 [W]

Iteration Number = 78

DILUPBiCG:  Solving for Ux, Initial residual = 0.011892564, Final residual = 5.1917265e-09, No Iterations 2
DILUPBiCG:  Solving for Uy, Initial residual = 0.0015482256, Final residual = 2.4788954e-08, No Iterations 2
DILUPBiCG:  Solving for Uz, Initial residual = 0.006285903, Final residual = 5.9543839e-09, No Iterations 2
DILUPBiCG:  Solving for h, Initial residual = 0.0020850596, Final residual = 1.3029402e-09, No Iterations 2
DICPCG:  Solving for p_rgh, Initial residual = 0.0035781642, Final residual = 2.2647147e-07, No Iterations 73
time step continuity errors : sum local = 1.1132514e-06, global = 5.4341439e-09, cumulative = -1.4760978e-05
rho max/min : 1.1766117 1.0234473
ExecutionTime = 3.03 s  ClockTime = 3 s
Inflow=  -3.076633e-08 [kg/s]
Outflow= -3.0761798e-08 [kg/s]
Energy Inflow   = -0.0092852784 [W]
Energy Outflow  = -0.0081383966 [W]
Energy Flow     = 0.0011468817 [W]

Iteration Number = 79

DILUPBiCG:  Solving for Ux, Initial residual = 0.0098022695, Final residual = 8.0159741e-09, No Iterations 2
DILUPBiCG:  Solving for Uy, Initial residual = 0.0015598058, Final residual = 1.6087426e-09, No Iterations 2
DILUPBiCG:  Solving for Uz, Initial residual = 0.006236867, Final residual = 6.3625407e-09, No Iterations 2
DILUPBiCG:  Solving for h, Initial residual = 0.002067968, Final residual = 1.2287802e-09, No Iterations 2
DICPCG:  Solving for p_rgh, Initial residual = 0.0034915934, Final residual = 2.2550698e-07, No Iterations 73
time step continuity errors : sum local = 1.0867149e-06, global = 5.9062771e-10, cumulative = -1.4760388e-05
rho max/min : 1.1766117 1.023052
ExecutionTime = 3.06 s  ClockTime = 3 s
Inflow=  -3.1321493e-08 [kg/s]
Outflow= -3.1321e-08 [kg/s]
Energy Inflow   = -0.0094528264 [W]
Energy Outflow  = -0.0082681227 [W]
Energy Flow     = 0.0011847037 [W]

Iteration Number = 80

DILUPBiCG:  Solving for Ux, Initial residual = 0.0089496784, Final residual = 1.9854559e-08, No Iterations 2
DILUPBiCG:  Solving for Uy, Initial residual = 0.0014072481, Final residual = 1.4609852e-09, No Iterations 2
DILUPBiCG:  Solving for Uz, Initial residual = 0.006183557, Final residual = 6.8016509e-09, No Iterations 2
DILUPBiCG:  Solving for h, Initial residual = 0.0020511897, Final residual = 1.1769883e-09, No Iterations 2
DICPCG:  Solving for G, Initial residual = 0.95680829, Final residual = 2733.4975, No Iterations 1001
DICPCG:  Solving for p_rgh, Initial residual = 0.0034041383, Final residual = 3.3822945e-07, No Iterations 57
time step continuity errors : sum local = 1.5623408e-06, global = -2.3565314e-07, cumulative = -1.4996041e-05
rho max/min : 1.1766117 1.0226507
ExecutionTime = 3.19 s  ClockTime = 3 s
Inflow=  -3.1661307e-08 [kg/s]
Outflow= -3.1857841e-08 [kg/s]
Energy Inflow   = -0.0095553822 [W]
Energy Outflow  = -0.0083900765 [W]
Energy Flow     = 0.0011653057 [W]

Iteration Number = 81

DILUPBiCG:  Solving for Ux, Initial residual = 0.0086081359, Final residual = 1.1588263e-07, No Iterations 2
DILUPBiCG:  Solving for Uy, Initial residual = 0.0014079904, Final residual = 8.515847e-09, No Iterations 2
DILUPBiCG:  Solving for Uz, Initial residual = 0.0061246639, Final residual = 7.2624839e-09, No Iterations 2
DILUPBiCG:  Solving for h, Initial residual = 0.0019763886, Final residual = 1.174754e-09, No Iterations 2
DICPCG:  Solving for p_rgh, Initial residual = 0.0040625318, Final residual = 2.2441108e-07, No Iterations 73
time step continuity errors : sum local = 1.0996245e-06, global = 3.9683389e-09, cumulative = -1.4992073e-05
rho max/min : 1.1766117 1.0227864
ExecutionTime = 3.22 s  ClockTime = 3 s
Inflow=  -3.2376586e-08 [kg/s]
Outflow= -3.2373277e-08 [kg/s]
Energy Inflow   = -0.0097712535 [W]
Energy Outflow  = -0.0085047296 [W]
Energy Flow     = 0.0012665239 [W]

Iteration Number = 82

DILUPBiCG:  Solving for Ux, Initial residual = 0.0345573, Final residual = 4.3581197e-09, No Iterations 2
DILUPBiCG:  Solving for Uy, Initial residual = 0.0014669097, Final residual = 1.4888663e-09, No Iterations 2
DILUPBiCG:  Solving for Uz, Initial residual = 0.0060767731, Final residual = 7.7272029e-09, No Iterations 2
DILUPBiCG:  Solving for h, Initial residual = 0.0019615056, Final residual = 1.585319e-09, No Iterations 2
DICPCG:  Solving for p_rgh, Initial residual = 0.0041567921, Final residual = 2.2324186e-07, No Iterations 73
time step continuity errors : sum local = 1.1044316e-06, global = 5.732062e-09, cumulative = -1.4986341e-05
rho max/min : 1.1766117 1.0225566
ExecutionTime = 3.25 s  ClockTime = 3 s
Inflow=  -3.2864638e-08 [kg/s]
Outflow= -3.2859857e-08 [kg/s]
Energy Inflow   = -0.0099185475 [W]
Energy Outflow  = -0.0086096273 [W]
Energy Flow     = 0.0013089201 [W]

Iteration Number = 83

DILUPBiCG:  Solving for Ux, Initial residual = 0.017254923, Final residual = 1.0146058e-08, No Iterations 2
DILUPBiCG:  Solving for Uy, Initial residual = 0.0015821664, Final residual = 1.4436543e-09, No Iterations 2
DILUPBiCG:  Solving for Uz, Initial residual = 0.0060244677, Final residual = 8.1919833e-09, No Iterations 2
DILUPBiCG:  Solving for h, Initial residual = 0.0019468321, Final residual = 1.9758883e-09, No Iterations 2
DICPCG:  Solving for p_rgh, Initial residual = 0.0039115801, Final residual = 3.9025562e-07, No Iterations 53
time step continuity errors : sum local = 1.8074588e-06, global = -2.6018223e-07, cumulative = -1.5246523e-05
rho max/min : 1.1766117 1.0222968
ExecutionTime = 3.28 s  ClockTime = 3 s
Inflow=  -3.3100401e-08 [kg/s]
Outflow= -3.3317393e-08 [kg/s]
Energy Inflow   = -0.009989701 [W]
Energy Outflow  = -0.0087046966 [W]
Energy Flow     = 0.0012850044 [W]

Iteration Number = 84

DILUPBiCG:  Solving for Ux, Initial residual = 0.011054059, Final residual = 2.7267523e-09, No Iterations 2
DILUPBiCG:  Solving for Uy, Initial residual = 0.0015724224, Final residual = 3.5309013e-08, No Iterations 2
DILUPBiCG:  Solving for Uz, Initial residual = 0.0059686961, Final residual = 8.6829207e-09, No Iterations 2
DILUPBiCG:  Solving for h, Initial residual = 0.0019323751, Final residual = 2.3071071e-09, No Iterations 2
DICPCG:  Solving for p_rgh, Initial residual = 0.0036080775, Final residual = 2.2305131e-07, No Iterations 73
time step continuity errors : sum local = 1.1040569e-06, global = -1.1366301e-09, cumulative = -1.5247659e-05
rho max/min : 1.1766117 1.0220112
ExecutionTime = 3.31 s  ClockTime = 3 s
Inflow=  -3.3745835e-08 [kg/s]
Outflow= -3.3746783e-08 [kg/s]
Energy Inflow   = -0.010184493 [W]
Energy Outflow  = -0.008790186 [W]
[...]
Energy Outflow  = 11.814579 [W]
Energy Flow     = 0.15767489 [W]

Iteration Number = 1851

DILUPBiCG:  Solving for Ux, Initial residual = 7.4151914e-05, Final residual = 1.1634874e-09, No Iterations 2
DILUPBiCG:  Solving for Uy, Initial residual = 0.0021388682, Final residual = 6.5359154e-08, No Iterations 2
DILUPBiCG:  Solving for Uz, Initial residual = 3.1892866e-05, Final residual = 2.4691851e-10, No Iterations 2
DILUPBiCG:  Solving for h, Initial residual = 5.067597e-06, Final residual = 1.0290789e-11, No Iterations 2
DICPCG:  Solving for p_rgh, Initial residual = 0.00018517262, Final residual = 1.6881566e-08, No Iterations 14
time step continuity errors : sum local = 8.3400948e-08, global = 2.6884513e-09, cumulative = -2.4608853e-05
rho max/min : 1.1766123 0.98830194
ExecutionTime = 70.98 s  ClockTime = 71 s
Inflow=  3.8628727e-05 [kg/s]
Outflow= 3.862873e-05 [kg/s]
Energy Inflow   = 11.65815 [W]
Energy Outflow  = 11.815825 [W]
Energy Flow     = 0.15767542 [W]

Iteration Number = 1852

DILUPBiCG:  Solving for Ux, Initial residual = 0.00062667368, Final residual = 1.1138976e-09, No Iterations 2
DILUPBiCG:  Solving for Uy, Initial residual = 0.0020521967, Final residual = 7.5284205e-08, No Iterations 2
DILUPBiCG:  Solving for Uz, Initial residual = 3.1883661e-05, Final residual = 2.4713196e-10, No Iterations 2
DILUPBiCG:  Solving for h, Initial residual = 4.7206511e-06, Final residual = 1.0530718e-11, No Iterations 2
DICPCG:  Solving for p_rgh, Initial residual = 0.00022110552, Final residual = 2.0760532e-08, No Iterations 23
time step continuity errors : sum local = 1.0427845e-07, global = 2.8861397e-09, cumulative = -2.4605967e-05
rho max/min : 1.1766123 0.9882813
ExecutionTime = 71 s  ClockTime = 71 s
Inflow=  3.8632853e-05 [kg/s]
Outflow= 3.8632855e-05 [kg/s]
Energy Inflow   = 11.659395 [W]
Energy Outflow  = 11.817071 [W]
Energy Flow     = 0.15767573 [W]

Iteration Number = 1853

DILUPBiCG:  Solving for Ux, Initial residual = 0.00032764592, Final residual = 1.1689524e-09, No Iterations 2
DILUPBiCG:  Solving for Uy, Initial residual = 0.0019542281, Final residual = 5.1393103e-08, No Iterations 2
DILUPBiCG:  Solving for Uz, Initial residual = 3.1861674e-05, Final residual = 2.4723599e-10, No Iterations 2
DILUPBiCG:  Solving for h, Initial residual = 4.6179257e-06, Final residual = 1.1307103e-11, No Iterations 2
DICPCG:  Solving for p_rgh, Initial residual = 0.00018667413, Final residual = 1.6771297e-08, No Iterations 23
time step continuity errors : sum local = 1.0325364e-07, global = -1.1256098e-10, cumulative = -2.460608e-05
rho max/min : 1.1766123 0.98826378
ExecutionTime = 71.05 s  ClockTime = 71 s
Inflow=  3.8636978e-05 [kg/s]
Outflow= 3.8636978e-05 [kg/s]
Energy Inflow   = 11.66064 [W]
Energy Outflow  = 11.818315 [W]
Energy Flow     = 0.15767525 [W]

Iteration Number = 1854

DILUPBiCG:  Solving for Ux, Initial residual = 0.00014507375, Final residual = 1.3771806e-09, No Iterations 2
DILUPBiCG:  Solving for Uy, Initial residual = 0.0019736591, Final residual = 6.847554e-08, No Iterations 2
DILUPBiCG:  Solving for Uz, Initial residual = 3.1842414e-05, Final residual = 2.4738772e-10, No Iterations 2
DILUPBiCG:  Solving for h, Initial residual = 4.5202822e-06, Final residual = 1.1987683e-11, No Iterations 2
DICPCG:  Solving for p_rgh, Initial residual = 0.00013802382, Final residual = 1.3685635e-08, No Iterations 25
time step continuity errors : sum local = 9.8080303e-08, global = 8.019591e-09, cumulative = -2.459806e-05
rho max/min : 1.1766123 0.98824889
ExecutionTime = 71.07 s  ClockTime = 71 s
Inflow=  3.8641092e-05 [kg/s]
Outflow= 3.8641099e-05 [kg/s]
Energy Inflow   = 11.661882 [W]
Energy Outflow  = 11.819559 [W]
Energy Flow     = 0.15767759 [W]

Iteration Number = 1855

DILUPBiCG:  Solving for Ux, Initial residual = 0.00023252052, Final residual = 1.1055431e-09, No Iterations 2
DILUPBiCG:  Solving for Uy, Initial residual = 0.001919937, Final residual = 6.2216256e-08, No Iterations 2
DILUPBiCG:  Solving for Uz, Initial residual = 3.1831733e-05, Final residual = 2.4762365e-10, No Iterations 2
DILUPBiCG:  Solving for h, Initial residual = 4.4661653e-06, Final residual = 1.2658799e-11, No Iterations 2
DICPCG:  Solving for p_rgh, Initial residual = 0.00010060954, Final residual = 9.4316382e-09, No Iterations 35
time step continuity errors : sum local = 1.0790588e-07, global = 5.1109019e-09, cumulative = -2.4592949e-05
rho max/min : 1.1766123 0.98823605
ExecutionTime = 71.11 s  ClockTime = 71 s
Inflow=  3.8645213e-05 [kg/s]
Outflow= 3.8645217e-05 [kg/s]
Energy Inflow   = 11.663125 [W]
Energy Outflow  = 11.820803 [W]
Energy Flow     = 0.15767717 [W]

Iteration Number = 1856

DILUPBiCG:  Solving for Ux, Initial residual = 0.00023071631, Final residual = 1.2891569e-09, No Iterations 2
DILUPBiCG:  Solving for Uy, Initial residual = 0.0019928257, Final residual = 7.3516933e-08, No Iterations 2
DILUPBiCG:  Solving for Uz, Initial residual = 3.1818828e-05, Final residual = 2.4778975e-10, No Iterations 2
DILUPBiCG:  Solving for h, Initial residual = 4.4256231e-06, Final residual = 1.3327229e-11, No Iterations 2
DICPCG:  Solving for p_rgh, Initial residual = 7.7049154e-05, Final residual = 7.3197026e-09, No Iterations 40
time step continuity errors : sum local = 1.1206503e-07, global = 3.2535168e-09, cumulative = -2.4589696e-05
rho max/min : 1.1766123 0.98822481
ExecutionTime = 71.14 s  ClockTime = 71 s
Inflow=  3.864933e-05 [kg/s]
Outflow= 3.8649333e-05 [kg/s]
Energy Inflow   = 11.664368 [W]
Energy Outflow  = 11.822045 [W]
Energy Flow     = 0.15767703 [W]

Iteration Number = 1857

DILUPBiCG:  Solving for Ux, Initial residual = 0.00020506947, Final residual = 1.2940054e-09, No Iterations 2
DILUPBiCG:  Solving for Uy, Initial residual = 0.0019803025, Final residual = 5.8898636e-08, No Iterations 2
DILUPBiCG:  Solving for Uz, Initial residual = 3.1805905e-05, Final residual = 2.4797415e-10, No Iterations 2
DILUPBiCG:  Solving for h, Initial residual = 4.3803291e-06, Final residual = 1.4079818e-11, No Iterations 2
DICPCG:  Solving for p_rgh, Initial residual = 6.8839859e-05, Final residual = 6.2270606e-09, No Iterations 36
time step continuity errors : sum local = 1.0998664e-07, global = 1.6517322e-09, cumulative = -2.4588044e-05
rho max/min : 1.1766123 0.98821484
ExecutionTime = 71.17 s  ClockTime = 71 s
Inflow=  3.8653445e-05 [kg/s]
Outflow= 3.8653446e-05 [kg/s]
Energy Inflow   = 11.66561 [W]
Energy Outflow  = 11.823287 [W]
Energy Flow     = 0.15767697 [W]

Iteration Number = 1858

DILUPBiCG:  Solving for Ux, Initial residual = 0.00016775322, Final residual = 1.1588272e-09, No Iterations 2
DILUPBiCG:  Solving for Uy, Initial residual = 0.0019728147, Final residual = 9.1488333e-08, No Iterations 2
DILUPBiCG:  Solving for Uz, Initial residual = 3.1794265e-05, Final residual = 2.4815968e-10, No Iterations 2
DILUPBiCG:  Solving for h, Initial residual = 4.3297305e-06, Final residual = 1.4820553e-11, No Iterations 2
DICPCG:  Solving for p_rgh, Initial residual = 6.7689095e-05, Final residual = 5.9319053e-09, No Iterations 36
time step continuity errors : sum local = 1.0696837e-07, global = -9.9230517e-10, cumulative = -2.4589036e-05
rho max/min : 1.1766123 0.9882059
ExecutionTime = 71.2 s  ClockTime = 71 s
Inflow=  3.8657557e-05 [kg/s]
Outflow= 3.8657557e-05 [kg/s]
Energy Inflow   = 11.666851 [W]
Energy Outflow  = 11.824528 [W]
Energy Flow     = 0.15767667 [W]

Iteration Number = 1859

DILUPBiCG:  Solving for Ux, Initial residual = 0.00013720867, Final residual = 9.763945e-10, No Iterations 2
DILUPBiCG:  Solving for Uy, Initial residual = 0.0018886717, Final residual = 5.0889945e-08, No Iterations 2
DILUPBiCG:  Solving for Uz, Initial residual = 3.1782211e-05, Final residual = 2.4834126e-10, No Iterations 2
DILUPBiCG:  Solving for h, Initial residual = 4.2810174e-06, Final residual = 1.5485948e-11, No Iterations 2
DICPCG:  Solving for p_rgh, Initial residual = 6.4707194e-05, Final residual = 6.1533944e-09, No Iterations 42
time step continuity errors : sum local = 1.0953494e-07, global = -3.7167733e-09, cumulative = -2.4592753e-05
rho max/min : 1.1766123 0.98819778
ExecutionTime = 71.23 s  ClockTime = 71 s
Inflow=  3.8661668e-05 [kg/s]
Outflow= 3.8661665e-05 [kg/s]
Energy Inflow   = 11.668092 [W]
Energy Outflow  = 11.825768 [W]
Energy Flow     = 0.15767636 [W]

Iteration Number = 1860

DILUPBiCG:  Solving for Ux, Initial residual = 0.00011924776, Final residual = 8.9291471e-10, No Iterations 2
DILUPBiCG:  Solving for Uy, Initial residual = 0.0018607115, Final residual = 7.9786354e-08, No Iterations 2
DILUPBiCG:  Solving for Uz, Initial residual = 3.1768729e-05, Final residual = 2.4852618e-10, No Iterations 2
DILUPBiCG:  Solving for h, Initial residual = 4.2386068e-06, Final residual = 1.6055306e-11, No Iterations 2
DICPCG:  Solving for G, Initial residual = 0.99998322, Final residual = 9.8198745e-05, No Iterations 56
DICPCG:  Solving for p_rgh, Initial residual = 6.0991849e-05, Final residual = 4.8498722e-09, No Iterations 65
time step continuity errors : sum local = 1.3729328e-07, global = -1.3503692e-09, cumulative = -2.4594103e-05
rho max/min : 1.1766123 0.98819034
ExecutionTime = 71.27 s  ClockTime = 71 s
Inflow=  3.8665771e-05 [kg/s]
Outflow= 3.866577e-05 [kg/s]
Energy Inflow   = 11.66933 [W]
Energy Outflow  = 11.827007 [W]
Energy Flow     = 0.15767734 [W]

Iteration Number = 1861

DILUPBiCG:  Solving for Ux, Initial residual = 0.00010904161, Final residual = 8.7044944e-10, No Iterations 2
DILUPBiCG:  Solving for Uy, Initial residual = 0.0019093964, Final residual = 1.1753044e-07, No Iterations 2
DILUPBiCG:  Solving for Uz, Initial residual = 3.1749542e-05, Final residual = 2.4866375e-10, No Iterations 2
DILUPBiCG:  Solving for h, Initial residual = 4.1987545e-06, Final residual = 9.0915501e-11, No Iterations 2
DICPCG:  Solving for p_rgh, Initial residual = 0.00011065571, Final residual = 9.8368486e-09, No Iterations 33
time step continuity errors : sum local = 1.0528838e-07, global = -1.8086002e-09, cumulative = -2.4595912e-05
rho max/min : 1.1766123 0.98821866
ExecutionTime = 71.3 s  ClockTime = 71 s
Inflow=  3.8669875e-05 [kg/s]
Outflow= 3.8669873e-05 [kg/s]
Energy Inflow   = 11.670568 [W]
Energy Outflow  = 11.828246 [W]
Energy Flow     = 0.15767752 [W]

Iteration Number = 1862

DILUPBiCG:  Solving for Ux, Initial residual = 0.00037265961, Final residual = 9.2235389e-10, No Iterations 2
DILUPBiCG:  Solving for Uy, Initial residual = 0.0019330241, Final residual = 1.812874e-07, No Iterations 2
DILUPBiCG:  Solving for Uz, Initial residual = 3.1745049e-05, Final residual = 2.4887219e-10, No Iterations 2
DILUPBiCG:  Solving for h, Initial residual = 3.8795545e-06, Final residual = 5.7275871e-11, No Iterations 2
DICPCG:  Solving for p_rgh, Initial residual = 0.00012252905, Final residual = 1.0321693e-08, No Iterations 31
time step continuity errors : sum local = 1.0311706e-07, global = -8.9406443e-10, cumulative = -2.4596806e-05
rho max/min : 1.1766123 0.98822323
ExecutionTime = 71.32 s  ClockTime = 71 s
Inflow=  3.8673974e-05 [kg/s]
Outflow= 3.8673974e-05 [kg/s]
Energy Inflow   = 11.671806 [W]
Energy Outflow  = 11.829484 [W]
Energy Flow     = 0.15767805 [W]

Iteration Number = 1863

DILUPBiCG:  Solving for Ux, Initial residual = 0.00022276913, Final residual = 9.0563539e-10, No Iterations 2
DILUPBiCG:  Solving for Uy, Initial residual = 0.0019374997, Final residual = 1.6018888e-07, No Iterations 2
DILUPBiCG:  Solving for Uz, Initial residual = 3.1730032e-05, Final residual = 2.4906285e-10, No Iterations 2
DILUPBiCG:  Solving for h, Initial residual = 3.638312e-06, Final residual = 3.9648839e-11, No Iterations 2
DICPCG:  Solving for p_rgh, Initial residual = 0.00010751712, Final residual = 9.6863289e-09, No Iterations 29
time step continuity errors : sum local = 1.0353578e-07, global = -6.1979215e-10, cumulative = -2.4597426e-05
rho max/min : 1.1766123 0.98822659
ExecutionTime = 71.35 s  ClockTime = 71 s
Inflow=  3.8678072e-05 [kg/s]
Outflow= 3.8678071e-05 [kg/s]
Energy Inflow   = 11.673042 [W]
Energy Outflow  = 11.830721 [W]
Energy Flow     = 0.15767842 [W]

Iteration Number = 1864

DILUPBiCG:  Solving for Ux, Initial residual = 0.00010939422, Final residual = 3.7591385e-09, No Iterations 2
DILUPBiCG:  Solving for Uy, Initial residual = 0.0018663947, Final residual = 7.7459591e-08, No Iterations 2
DILUPBiCG:  Solving for Uz, Initial residual = 3.1715533e-05, Final residual = 2.492534e-10, No Iterations 2
DILUPBiCG:  Solving for h, Initial residual = 3.4534857e-06, Final residual = 2.838673e-11, No Iterations 2
DICPCG:  Solving for p_rgh, Initial residual = 8.5368135e-05, Final residual = 8.1867876e-09, No Iterations 34
time step continuity errors : sum local = 1.0480843e-07, global = -2.7099545e-09, cumulative = -2.4600136e-05
rho max/min : 1.1766123 0.98822894
ExecutionTime = 71.38 s  ClockTime = 71 s
Inflow=  3.8682168e-05 [kg/s]
Outflow= 3.8682166e-05 [kg/s]
Energy Inflow   = 11.674278 [W]
Energy Outflow  = 11.831957 [W]
Energy Flow     = 0.1576782 [W]

Iteration Number = 1865

DILUPBiCG:  Solving for Ux, Initial residual = 0.00013135664, Final residual = 8.1125472e-10, No Iterations 2
DILUPBiCG:  Solving for Uy, Initial residual = 0.0018995277, Final residual = 1.0888594e-07, No Iterations 2
DILUPBiCG:  Solving for Uz, Initial residual = 3.1700592e-05, Final residual = 2.4944086e-10, No Iterations 2
DILUPBiCG:  Solving for h, Initial residual = 3.3098256e-06, Final residual = 2.0727678e-11, No Iterations 2
DICPCG:  Solving for p_rgh, Initial residual = 6.5908885e-05, Final residual = 5.7611335e-09, No Iterations 47
time step continuity errors : sum local = 1.1952325e-07, global = -4.976637e-09, cumulative = -2.4605112e-05
rho max/min : 1.1766123 0.98823054
ExecutionTime = 71.41 s  ClockTime = 71 s
Inflow=  3.8686261e-05 [kg/s]
Outflow= 3.8686257e-05 [kg/s]
Energy Inflow   = 11.675514 [W]
Energy Outflow  = 11.833192 [W]
Energy Flow     = 0.15767794 [W]

Iteration Number = 1866

DILUPBiCG:  Solving for Ux, Initial residual = 0.00014008852, Final residual = 9.4564277e-10, No Iterations 2
DILUPBiCG:  Solving for Uy, Initial residual = 0.0019868048, Final residual = 6.4005478e-08, No Iterations 2
DILUPBiCG:  Solving for Uz, Initial residual = 3.1684973e-05, Final residual = 2.4962083e-10, No Iterations 2
DILUPBiCG:  Solving for h, Initial residual = 3.1965468e-06, Final residual = 1.5627875e-11, No Iterations 2
DICPCG:  Solving for p_rgh, Initial residual = 5.1784354e-05, Final residual = 4.6135602e-09, No Iterations 65
time step continuity errors : sum local = 1.4129412e-07, global = -5.8670434e-10, cumulative = -2.4605699e-05
rho max/min : 1.1766123 0.98823156
ExecutionTime = 71.45 s  ClockTime = 71 s
Inflow=  3.8690346e-05 [kg/s]
Outflow= 3.8690346e-05 [kg/s]
Energy Inflow   = 11.676747 [W]
Energy Outflow  = 11.834426 [W]
Energy Flow     = 0.15767936 [W]

Iteration Number = 1867

DILUPBiCG:  Solving for Ux, Initial residual = 0.00013185149, Final residual = 1.0233233e-09, No Iterations 2
DILUPBiCG:  Solving for Uy, Initial residual = 0.0020661043, Final residual = 3.5770065e-09, No Iterations 3
DILUPBiCG:  Solving for Uz, Initial residual = 3.166679e-05, Final residual = 2.4977672e-10, No Iterations 2
DILUPBiCG:  Solving for h, Initial residual = 3.1058822e-06, Final residual = 1.2310764e-11, No Iterations 2
DICPCG:  Solving for p_rgh, Initial residual = 4.2692973e-05, Final residual = 3.2446594e-09, No Iterations 44
time step continuity errors : sum local = 1.1632565e-07, global = -1.70963e-09, cumulative = -2.4607409e-05
rho max/min : 1.1766123 0.98823217
ExecutionTime = 71.49 s  ClockTime = 72 s
Inflow=  3.8694433e-05 [kg/s]
Outflow= 3.8694431e-05 [kg/s]
Energy Inflow   = 11.67798 [W]
Energy Outflow  = 11.835659 [W]
Energy Flow     = 0.1576794 [W]

Iteration Number = 1868

DILUPBiCG:  Solving for Ux, Initial residual = 0.00011668695, Final residual = 9.9920995e-10, No Iterations 2
DILUPBiCG:  Solving for Uy, Initial residual = 0.0019618384, Final residual = 8.3538999e-08, No Iterations 2
DILUPBiCG:  Solving for Uz, Initial residual = 3.1652411e-05, Final residual = 2.4995584e-10, No Iterations 2
DILUPBiCG:  Solving for h, Initial residual = 3.0322291e-06, Final residual = 1.0042662e-11, No Iterations 2
DICPCG:  Solving for p_rgh, Initial residual = 3.7929194e-05, Final residual = 3.1501614e-09, No Iterations 45
time step continuity errors : sum local = 1.2142396e-07, global = -1.9996278e-09, cumulative = -2.4609408e-05
rho max/min : 1.1766123 0.98823245
ExecutionTime = 71.51 s  ClockTime = 72 s
Inflow=  3.8698515e-05 [kg/s]
Outflow= 3.8698514e-05 [kg/s]
Energy Inflow   = 11.679212 [W]
Energy Outflow  = 11.836892 [W]
Energy Flow     = 0.15767965 [W]

Iteration Number = 1869

DILUPBiCG:  Solving for Ux, Initial residual = 0.00010244153, Final residual = 1.0422643e-09, No Iterations 2
DILUPBiCG:  Solving for Uy, Initial residual = 0.0019453727, Final residual = 5.5582875e-08, No Iterations 2
DILUPBiCG:  Solving for Uz, Initial residual = 3.1637052e-05, Final residual = 2.5011932e-10, No Iterations 2
DILUPBiCG:  Solving for h, Initial residual = 2.9717342e-06, Final residual = 8.5013267e-12, No Iterations 2
DICPCG:  Solving for p_rgh, Initial residual = 3.4609611e-05, Final residual = 2.7478108e-09, No Iterations 47
time step continuity errors : sum local = 1.1984052e-07, global = -3.9570462e-09, cumulative = -2.4613365e-05
rho max/min : 1.1766123 0.98823248
ExecutionTime = 71.55 s  ClockTime = 72 s
Inflow=  3.8702596e-05 [kg/s]
Outflow= 3.8702593e-05 [kg/s]
Energy Inflow   = 11.680444 [W]
Energy Outflow  = 11.838123 [W]
Energy Flow     = 0.15767949 [W]

Iteration Number = 1870

DILUPBiCG:  Solving for Ux, Initial residual = 9.2798848e-05, Final residual = 4.6165413e-09, No Iterations 2
DILUPBiCG:  Solving for Uy, Initial residual = 0.0019158811, Final residual = 2.0877727e-09, No Iterations 3
DILUPBiCG:  Solving for Uz, Initial residual = 3.1622065e-05, Final residual = 2.5029163e-10, No Iterations 2
DILUPBiCG:  Solving for h, Initial residual = 2.9307266e-06, Final residual = 7.3746157e-12, No Iterations 2
DICPCG:  Solving for G, Initial residual = 0.89592711, Final residual = 1.3111703e+09, No Iterations 1001
DICPCG:  Solving for p_rgh, Initial residual = 3.1771216e-05, Final residual = 2.4160261e-09, No Iterations 66
time step continuity errors : sum local = 1.4017553e-07, global = 5.7639815e-10, cumulative = -2.4612789e-05
rho max/min : 1.1766123 0.98823233
ExecutionTime = 71.68 s  ClockTime = 72 s
Inflow=  3.8706668e-05 [kg/s]
Outflow= 3.8706669e-05 [kg/s]
Energy Inflow   = 11.681673 [W]
Energy Outflow  = 11.839354 [W]
Energy Flow     = 0.15768096 [W]

Iteration Number = 1871

DILUPBiCG:  Solving for Ux, Initial residual = 8.6640778e-05, Final residual = 2.1448129e-09, No Iterations 2
DILUPBiCG:  Solving for Uy, Initial residual = 0.0019793691, Final residual = 1.0378215e-07, No Iterations 2
DILUPBiCG:  Solving for Uz, Initial residual = 3.160068e-05, Final residual = 2.5041459e-10, No Iterations 2
DILUPBiCG:  Solving for h, Initial residual = 0.015188348, Final residual = 5.4509831e-10, No Iterations 2
DICPCG:  Solving for p_rgh, Initial residual = 0.68159177, Final residual = 4.1796288e-05, No Iterations 6
time step continuity errors : sum local = 0.00027681927, global = 2.082649e-05, cumulative = -3.7862985e-06
rho max/min : 2.405186 1.0290043
ExecutionTime = 71.71 s  ClockTime = 72 s
Inflow=  3.8699557e-05 [kg/s]
Outflow= 3.8716926e-05 [kg/s]
Energy Inflow   = 11.679526 [W]
Energy Outflow  = 11.840583 [W]
Energy Flow     = 0.16105653 [W]

Iteration Number = 1872

DILUPBiCG:  Solving for Ux, Initial residual = 0.11401857, Final residual = 3.4129437e-08, No Iterations 2
DILUPBiCG:  Solving for Uy, Initial residual = 0.017132771, Final residual = 6.3805396e-08, No Iterations 2
DILUPBiCG:  Solving for Uz, Initial residual = 0.00018225545, Final residual = 4.8961271e-10, No Iterations 2
DILUPBiCG:  Solving for h, Initial residual = 0.017746338, Final residual = 6.3504186e-10, No Iterations 2
