/*---------------------------------------------------------------------------*\
| =========                 |                                                 |
| \\      /  F ield         | OpenFOAM: The Open Source CFD Toolbox           |
|  \\    /   O peration     | Version:  4.0                                   |
|   \\  /    A nd           | Web:      www.OpenFOAM.org                      |
|    \\/     M anipulation  |                                                 |
\*---------------------------------------------------------------------------*/
Build  : 4.0-665f1db4c1f1
Exec   : pupoBuoyantSimpleFoam
Date   : Aug 23 2016
Time   : 21:11:11
Host   : "SC500"
PID    : 27608
Case   : /home/pedro/Documents/ThesisProject/OpenFoam/validation1rod/ViewFactor
nProcs : 1
sigFpe : Enabling floating point exception trapping (FOAM_SIGFPE).
fileModificationChecking : Monitoring run-time modified files using timeStampMaster
allowSystemOperations : Allowing user-supplied system call operations

// * * * * * * * * * * * * * * * * * * * * * * * * * * * * * * * * * * * * * //
Create time

Create mesh for time = 0


SIMPLE: convergence criteria
    field p_rgh	 tolerance 1e-06
    field Uz	 tolerance 1e-06
    field h	 tolerance 1e-06

Reading thermophysical properties

Selecting thermodynamics package 
{
    type            heRhoThermo;
    mixture         pureMixture;
    transport       sutherland;
    thermo          hConst;
    equationOfState perfectGas;
    specie          specie;
    energy          sensibleEnthalpy;
}


Reading g

Reading hRef
Calculating field g.h

Selecting turbulence model type laminar
No MRF models present

Selecting radiationModel viewFactor
Selecting absorptionEmissionModel constantAbsorptionEmission
Selecting scatterModel none
 
rho max/avg/min : 1.2016452 1.2015414 1.2014377
T   max/avg/min : 293.7 293.7 293.7
P   max/avg/min : 101324.91 101316.16 101307.41
Prg max/avg/min : 101325 101325 101325
U   max/avg/min : 0 0 0
 
No finite volume options present


Starting Iteration loop

Iteration Number = 1

DILUPBiCG:  Solving for Ux, Initial residual = 1, Final residual = 4.130809e-06, No Iterations 3
DILUPBiCG:  Solving for Uz, Initial residual = 1, Final residual = 7.1139094e-06, No Iterations 3
DILUPBiCG:  Solving for h, Initial residual = 1, Final residual = 7.5481538e-05, No Iterations 3
DICPCG:  Solving for p_rgh, Initial residual = 0.55375103, Final residual = 4.5758575e-05, No Iterations 84
time step continuity errors : sum local = 5.3283251e-06, global = 2.0589606e-10, cumulative = 2.0589606e-10
ExecutionTime = 1.88 s  ClockTime = 2 s
Inflow      : -1.8130566e-05 [kg/s]
Outflow     : -1.8130554e-05 [kg/s]
EnergyInflow  : -5.356897 [W]
EnergyOutflow : -5.3568934 [W]
rho max/avg/min : 1.2016452 1.2010804 1.1932106
T   max/avg/min : 295.72502 293.81318 293.7
P   max/avg/min : 101324.91 101316.16 101307.41
Prg max/avg/min : 101325 101325 101324.88
U   max/avg/min : 0.00066304958 -9.1874786e-05 -0.00084065189
Prg max-min : 0.1210389
 
Iteration Number = 2

DILUPBiCG:  Solving for Ux, Initial residual = 0.36834656, Final residual = 1.3541814e-06, No Iterations 3
DILUPBiCG:  Solving for Uz, Initial residual = 0.39380027, Final residual = 8.659197e-07, No Iterations 3
DILUPBiCG:  Solving for h, Initial residual = 0.31751219, Final residual = 2.2669503e-05, No Iterations 4
DICPCG:  Solving for p_rgh, Initial residual = 0.057704244, Final residual = 5.3202913e-06, No Iterations 89
time step continuity errors : sum local = 2.6279928e-06, global = -4.6024138e-08, cumulative = -4.5818242e-08
ExecutionTime = 2.43 s  ClockTime = 2 s
Inflow      : -2.6095604e-05 [kg/s]
Outflow     : -2.6098316e-05 [kg/s]
EnergyInflow  : -7.7102646 [W]
EnergyOutflow : -7.7110659 [W]
rho max/avg/min : 1.2016452 1.2007922 1.1888615
T   max/avg/min : 296.82448 293.88423 293.70001
P   max/avg/min : 101324.91 101316.16 101307.41
Prg max/avg/min : 101325 101324.99 101324.82
U   max/avg/min : 0.00098025481 -0.0001376363 -0.0011573606
Prg max-min : 0.18467166
 
Iteration Number = 3

DILUPBiCG:  Solving for Ux, Initial residual = 0.23702884, Final residual = 6.8766674e-07, No Iterations 3
DILUPBiCG:  Solving for Uz, Initial residual = 0.19065388, Final residual = 3.0827805e-07, No Iterations 3
DILUPBiCG:  Solving for h, Initial residual = 0.16625508, Final residual = 1.0879781e-06, No Iterations 5
DICPCG:  Solving for p_rgh, Initial residual = 0.020442681, Final residual = 1.3129842e-06, No Iterations 90
time step continuity errors : sum local = 1.4566698e-06, global = 1.6461537e-08, cumulative = -2.9356705e-08
ExecutionTime = 3.01 s  ClockTime = 3 s
Inflow      : -2.1157472e-05 [kg/s]
Outflow     : -2.1156502e-05 [kg/s]
EnergyInflow  : -6.2512333 [W]
EnergyOutflow : -6.2509464 [W]
rho max/avg/min : 1.2041647 1.2004952 1.1854889
T   max/avg/min : 297.67327 293.95772 293.07039
P   max/avg/min : 101324.91 101316.16 101307.41
Prg max/avg/min : 101325.04 101324.99 101324.77
U   max/avg/min : 0.0016935961 -0.00010809797 -0.0015699193
Prg max-min : 0.26792891
 
Iteration Number = 4

DILUPBiCG:  Solving for Ux, Initial residual = 0.12009853, Final residual = 4.5312063e-07, No Iterations 3
DILUPBiCG:  Solving for Uz, Initial residual = 0.054826105, Final residual = 2.1233885e-07, No Iterations 3
DILUPBiCG:  Solving for h, Initial residual = 0.11934204, Final residual = 1.1763771e-05, No Iterations 4
DICPCG:  Solving for p_rgh, Initial residual = 0.013135916, Final residual = 1.0228427e-06, No Iterations 90
time step continuity errors : sum local = 1.4461381e-06, global = 2.8615152e-09, cumulative = -2.649519e-08
ExecutionTime = 3.58 s  ClockTime = 3 s
Inflow      : -1.7327071e-05 [kg/s]
Outflow     : -1.7326902e-05 [kg/s]
EnergyInflow  : -5.1194945 [W]
EnergyOutflow : -5.1194438 [W]
rho max/avg/min : 1.205966 1.2001931 1.1826162
T   max/avg/min : 298.3989 294.03264 292.62159
P   max/avg/min : 101324.91 101316.16 101307.41
Prg max/avg/min : 101325.06 101324.99 101324.73
U   max/avg/min : 0.0022271358 -8.4806878e-05 -0.0019727642
Prg max-min : 0.33563054
 
Iteration Number = 5

DILUPBiCG:  Solving for Ux, Initial residual = 0.097668756, Final residual = 2.7795156e-07, No Iterations 3
DILUPBiCG:  Solving for Uz, Initial residual = 0.19656028, Final residual = 4.6781276e-07, No Iterations 3
DILUPBiCG:  Solving for h, Initial residual = 0.091399909, Final residual = 8.246678e-07, No Iterations 5
DICPCG:  Solving for p_rgh, Initial residual = 0.0097652485, Final residual = 8.5834591e-07, No Iterations 90
time step continuity errors : sum local = 1.4963689e-06, global = -3.3853533e-08, cumulative = -6.0348723e-08
ExecutionTime = 4.17 s  ClockTime = 4 s
Inflow      : -1.4321933e-05 [kg/s]
Outflow     : -1.4323928e-05 [kg/s]
EnergyInflow  : -4.23159 [W]
EnergyOutflow : -4.2321774 [W]
rho max/avg/min : 1.2072023 1.1998865 1.1800578
T   max/avg/min : 299.048 294.10879 292.30943
P   max/avg/min : 101324.91 101316.16 101307.41
Prg max/avg/min : 101325.08 101324.99 101324.69
U   max/avg/min : 0.0026345921 -6.0489124e-05 -0.0023531617
Prg max-min : 0.39056548
 
Iteration Number = 6

DILUPBiCG:  Solving for Ux, Initial residual = 0.067076881, Final residual = 2.2434753e-07, No Iterations 3
DILUPBiCG:  Solving for Uz, Initial residual = 0.088760655, Final residual = 1.8496719e-07, No Iterations 3
DILUPBiCG:  Solving for h, Initial residual = 0.073603632, Final residual = 1.1474422e-06, No Iterations 5
DICPCG:  Solving for p_rgh, Initial residual = 0.0082097262, Final residual = 7.6567546e-07, No Iterations 89
time step continuity errors : sum local = 1.5071159e-06, global = 2.1944656e-08, cumulative = -3.8404068e-08
ExecutionTime = 4.76 s  ClockTime = 5 s
Inflow      : -1.1925306e-05 [kg/s]
Outflow     : -1.1924013e-05 [kg/s]
EnergyInflow  : -3.5234771 [W]
EnergyOutflow : -3.523091 [W]
rho max/avg/min : 1.2081422 1.1995758 1.1777203
T   max/avg/min : 299.64343 294.1861 292.08
P   max/avg/min : 101324.91 101316.16 101307.41
Prg max/avg/min : 101325.09 101324.99 101324.66
U   max/avg/min : 0.0029907815 -3.7800636e-05 -0.002716701
Prg max-min : 0.43733128
 
Iteration Number = 7

DILUPBiCG:  Solving for Ux, Initial residual = 0.057307505, Final residual = 1.7662918e-07, No Iterations 3
DILUPBiCG:  Solving for Uz, Initial residual = 0.19312452, Final residual = 4.8333412e-07, No Iterations 3
DILUPBiCG:  Solving for h, Initial residual = 0.061518636, Final residual = 5.6518671e-06, No Iterations 4
DICPCG:  Solving for p_rgh, Initial residual = 0.007681142, Final residual = 5.4732304e-07, No Iterations 89
time step continuity errors : sum local = 1.3754983e-06, global = -3.1398907e-08, cumulative = -6.9802974e-08
ExecutionTime = 5.37 s  ClockTime = 5 s
Inflow      : -9.9944958e-06 [kg/s]
Outflow     : -9.9963462e-06 [kg/s]
EnergyInflow  : -2.9529957 [W]
EnergyOutflow : -2.9535353 [W]
rho max/avg/min : 1.2088535 1.1992612 1.1755495
T   max/avg/min : 300.19844 294.26449 291.90808
P   max/avg/min : 101324.91 101316.16 101307.41
Prg max/avg/min : 101325.1 101324.98 101324.62
U   max/avg/min : 0.0032657344 -1.1334104e-05 -0.0030483001
Prg max-min : 0.47815932
 
Iteration Number = 8

DILUPBiCG:  Solving for Ux, Initial residual = 0.043174608, Final residual = 1.5781875e-07, No Iterations 3
DILUPBiCG:  Solving for Uz, Initial residual = 0.11322438, Final residual = 1.7108973e-07, No Iterations 3
DILUPBiCG:  Solving for h, Initial residual = 0.05283023, Final residual = 4.9320797e-06, No Iterations 4
DICPCG:  Solving for p_rgh, Initial residual = 0.0066637756, Final residual = 3.6416593e-07, No Iterations 89
time step continuity errors : sum local = 1.2758578e-06, global = 1.9281019e-08, cumulative = -5.0521955e-08
ExecutionTime = 5.97 s  ClockTime = 6 s
Inflow      : -8.4264009e-06 [kg/s]
Outflow     : -8.4252646e-06 [kg/s]
EnergyInflow  : -2.4896829 [W]
EnergyOutflow : -2.4893352 [W]
rho max/avg/min : 1.2093867 1.1989429 1.1735107
T   max/avg/min : 300.72152 294.34389 291.77935
P   max/avg/min : 101324.91 101316.16 101307.41
Prg max/avg/min : 101325.11 101324.98 101324.6
U   max/avg/min : 0.0035205916 1.7026434e-05 -0.0033613746
Prg max-min : 0.51444976
 
Iteration Number = 9

DILUPBiCG:  Solving for Ux, Initial residual = 0.043139032, Final residual = 1.4178672e-07, No Iterations 3
DILUPBiCG:  Solving for Uz, Initial residual = 0.17302283, Final residual = 3.4425118e-07, No Iterations 3
DILUPBiCG:  Solving for h, Initial residual = 0.046310713, Final residual = 4.0931855e-06, No Iterations 4
DICPCG:  Solving for p_rgh, Initial residual = 0.0064571018, Final residual = 6.235509e-07, No Iterations 90
time step continuity errors : sum local = 1.6568793e-06, global = -6.2438879e-09, cumulative = -5.6765843e-08
ExecutionTime = 6.57 s  ClockTime = 6 s
Inflow      : -7.1478558e-06 [kg/s]
Outflow     : -7.1482238e-06 [kg/s]
EnergyInflow  : -2.1119212 [W]
EnergyOutflow : -2.1120108 [W]
rho max/avg/min : 1.2097793 1.1986211 1.1715762
T   max/avg/min : 301.21841 294.42422 291.68464
P   max/avg/min : 101324.91 101316.16 101307.41
Prg max/avg/min : 101325.12 101324.98 101324.57
U   max/avg/min : 0.0037083877 5.1540819e-05 -0.0036420507
Prg max-min : 0.54709503
 
Iteration Number = 10

DILUPBiCG:  Solving for Ux, Initial residual = 0.036338527, Final residual = 1.3248085e-07, No Iterations 3
DILUPBiCG:  Solving for Uz, Initial residual = 0.1201658, Final residual = 1.5463005e-07, No Iterations 3
DILUPBiCG:  Solving for h, Initial residual = 0.041277203, Final residual = 3.9809582e-06, No Iterations 4
DICPCG:  Solving for p_rgh, Initial residual = 0.0059125079, Final residual = 4.9176116e-07, No Iterations 88
time step continuity errors : sum local = 1.5360647e-06, global = 5.8027049e-09, cumulative = -5.0963139e-08
ExecutionTime = 7.26 s  ClockTime = 7 s
Inflow      : -6.1037957e-06 [kg/s]
Outflow     : -6.1034538e-06 [kg/s]
EnergyInflow  : -1.8034409 [W]
EnergyOutflow : -1.8033106 [W]
rho max/avg/min : 1.2100575 1.1982961 1.1697334
T   max/avg/min : 301.69326 294.50544 291.61756
P   max/avg/min : 101324.91 101316.16 101307.41
Prg max/avg/min : 101325.12 101324.98 101324.54
U   max/avg/min : 0.0038917003 9.1145778e-05 -0.0039007867
Prg max-min : 0.57672698
 
Iteration Number = 11

DILUPBiCG:  Solving for Ux, Initial residual = 0.033038139, Final residual = 1.28479e-07, No Iterations 3
DILUPBiCG:  Solving for Uz, Initial residual = 0.14880506, Final residual = 2.4574423e-07, No Iterations 3
DILUPBiCG:  Solving for h, Initial residual = 0.040498323, Final residual = 2.520684e-06, No Iterations 5
DICPCG:  Solving for p_rgh, Initial residual = 0.0074602135, Final residual = 6.2223445e-07, No Iterations 89
time step continuity errors : sum local = 1.8818935e-06, global = -1.6502352e-08, cumulative = -6.7465491e-08
ExecutionTime = 7.85 s  ClockTime = 8 s
Inflow      : -5.2695699e-06 [kg/s]
Outflow     : -5.2705424e-06 [kg/s]
EnergyInflow  : -1.5569587 [W]
EnergyOutflow : -1.5572025 [W]
rho max/avg/min : 1.2098152 1.1980157 1.1692244
T   max/avg/min : 301.82468 294.57529 291.67596
P   max/avg/min : 101324.91 101316.16 101307.41
Prg max/avg/min : 101325.11 101324.97 101324.53
U   max/avg/min : 0.0040333819 0.00013930294 -0.0041245306
Prg max-min : 0.57988885
 
Iteration Number = 12

DILUPBiCG:  Solving for Ux, Initial residual = 0.030493936, Final residual = 1.2339872e-07, No Iterations 3
DILUPBiCG:  Solving for Uz, Initial residual = 0.11812153, Final residual = 1.4861435e-07, No Iterations 3
DILUPBiCG:  Solving for h, Initial residual = 0.028839638, Final residual = 1.854434e-07, No Iterations 6
DICPCG:  Solving for p_rgh, Initial residual = 0.0061773175, Final residual = 6.1580035e-07, No Iterations 87
time step continuity errors : sum local = 1.9546951e-06, global = 9.6881361e-09, cumulative = -5.7777355e-08
ExecutionTime = 8.44 s  ClockTime = 8 s
Inflow      : -4.594296e-06 [kg/s]
Outflow     : -4.593725e-06 [kg/s]
EnergyInflow  : -1.3574408 [W]
EnergyOutflow : -1.3572095 [W]
rho max/avg/min : 1.2097207 1.197731 1.1682203
T   max/avg/min : 302.08424 294.6463 291.69875
P   max/avg/min : 101324.91 101316.16 101307.41
Prg max/avg/min : 101325.11 101324.97 101324.52
U   max/avg/min : 0.004167904 0.00019562087 -0.0043228688
Prg max-min : 0.59220005
 
Iteration Number = 13

DILUPBiCG:  Solving for Ux, Initial residual = 0.034094644, Final residual = 1.4616891e-07, No Iterations 3
DILUPBiCG:  Solving for Uz, Initial residual = 0.12791109, Final residual = 1.9645807e-07, No Iterations 3
DILUPBiCG:  Solving for h, Initial residual = 0.027311662, Final residual = 1.836332e-07, No Iterations 6
DICPCG:  Solving for p_rgh, Initial residual = 0.0060836854, Final residual = 4.1004029e-07, No Iterations 90
time step continuity errors : sum local = 1.6083361e-06, global = -1.3076648e-08, cumulative = -7.0854003e-08
ExecutionTime = 9.02 s  ClockTime = 9 s
Inflow      : -4.0707093e-06 [kg/s]
Outflow     : -4.0714799e-06 [kg/s]
EnergyInflow  : -1.2027407 [W]
EnergyOutflow : -1.2028803 [W]
rho max/avg/min : 1.2096319 1.1974442 1.1671135
T   max/avg/min : 302.37084 294.71791 291.72019
P   max/avg/min : 101324.91 101316.16 101307.41
Prg max/avg/min : 101325.11 101324.97 101324.5
U   max/avg/min : 0.0042696994 0.00026309621 -0.0045472169
Prg max-min : 0.60603149
 
Iteration Number = 14

DILUPBiCG:  Solving for Ux, Initial residual = 0.035254924, Final residual = 1.5058071e-07, No Iterations 3
DILUPBiCG:  Solving for Uz, Initial residual = 0.11443024, Final residual = 1.6061644e-07, No Iterations 3
DILUPBiCG:  Solving for h, Initial residual = 0.026021374, Final residual = 1.8415099e-07, No Iterations 6
DICPCG:  Solving for p_rgh, Initial residual = 0.0061824357, Final residual = 4.2805824e-07, No Iterations 88
time step continuity errors : sum local = 1.6944661e-06, global = -3.436108e-08, cumulative = -1.0521508e-07
ExecutionTime = 9.64 s  ClockTime = 10 s
Inflow      : -3.6727352e-06 [kg/s]
Outflow     : -3.6747601e-06 [kg/s]
EnergyInflow  : -1.0851544 [W]
EnergyOutflow : -1.0856308 [W]
rho max/avg/min : 1.2095242 1.1971557 1.1659817
T   max/avg/min : 302.66449 294.79001 291.74622
P   max/avg/min : 101324.91 101316.16 101307.41
Prg max/avg/min : 101325.11 101324.97 101324.49
U   max/avg/min : 0.0043685182 0.00034188161 -0.0047455712
Prg max-min : 0.61993469
 
Iteration Number = 15

DILUPBiCG:  Solving for Ux, Initial residual = 0.037892793, Final residual = 1.7518398e-07, No Iterations 3
DILUPBiCG:  Solving for Uz, Initial residual = 0.11629479, Final residual = 1.0406224e-05, No Iterations 2
DILUPBiCG:  Solving for h, Initial residual = 0.024879464, Final residual = 1.8532419e-07, No Iterations 6
DICPCG:  Solving for p_rgh, Initial residual = 0.0063955886, Final residual = 5.594868e-07, No Iterations 89
time step continuity errors : sum local = 2.0951512e-06, global = -3.2428505e-08, cumulative = -1.3764359e-07
ExecutionTime = 10.22 s  ClockTime = 10 s
Inflow      : -3.4098952e-06 [kg/s]
Outflow     : -3.4118062e-06 [kg/s]
EnergyInflow  : -1.0074951 [W]
EnergyOutflow : -1.0078934 [W]
rho max/avg/min : 1.209392 1.1968656 1.1648499
T   max/avg/min : 302.95871 294.86256 291.77816
P   max/avg/min : 101324.91 101316.16 101307.41
Prg max/avg/min : 101325.1 101324.97 101324.47
U   max/avg/min : 0.004429245 0.00043458396 -0.0048951356
Prg max-min : 0.63347025
 
Iteration Number = 16

DILUPBiCG:  Solving for Ux, Initial residual = 0.041715292, Final residual = 1.8805764e-07, No Iterations 3
DILUPBiCG:  Solving for Uz, Initial residual = 0.11265861, Final residual = 1.6762854e-07, No Iterations 3
DILUPBiCG:  Solving for h, Initial residual = 0.023860507, Final residual = 1.8851213e-07, No Iterations 6
DICPCG:  Solving for p_rgh, Initial residual = 0.0062270929, Final residual = 4.6988312e-07, No Iterations 88
time step continuity errors : sum local = 1.9477155e-06, global = -2.4423584e-08, cumulative = -1.6206717e-07
ExecutionTime = 10.81 s  ClockTime = 11 s
Inflow      : -3.2744739e-06 [kg/s]
Outflow     : -3.2759132e-06 [kg/s]
EnergyInflow  : -0.96748325 [W]
EnergyOutflow : -0.96768442 [W]
rho max/avg/min : 1.209235 1.1965739 1.1637287
T   max/avg/min : 303.25071 294.93555 291.81614
P   max/avg/min : 101324.91 101316.16 101307.41
Prg max/avg/min : 101325.1 101324.96 101324.46
U   max/avg/min : 0.0045010562 0.0005417817 -0.0050181285
Prg max-min : 0.64648732
 
Iteration Number = 17

DILUPBiCG:  Solving for Ux, Initial residual = 0.04607701, Final residual = 2.0063145e-07, No Iterations 3
DILUPBiCG:  Solving for Uz, Initial residual = 0.11102571, Final residual = 7.6804659e-06, No Iterations 2
DILUPBiCG:  Solving for h, Initial residual = 0.022943121, Final residual = 1.9100418e-07, No Iterations 6
DICPCG:  Solving for p_rgh, Initial residual = 0.0064123337, Final residual = 6.0484742e-07, No Iterations 88
time step continuity errors : sum local = 2.4127222e-06, global = -3.9586639e-08, cumulative = -2.0165381e-07
ExecutionTime = 11.4 s  ClockTime = 11 s
Inflow      : -3.2965182e-06 [kg/s]
Outflow     : -3.2988511e-06 [kg/s]
EnergyInflow  : -0.97399653 [W]
EnergyOutflow : -0.97438727 [W]
rho max/avg/min : 1.2090539 1.1962807 1.1626232
T   max/avg/min : 303.53918 295.00895 291.85993
P   max/avg/min : 101324.91 101316.16 101307.41
Prg max/avg/min : 101325.1 101324.96 101324.44
U   max/avg/min : 0.0045452744 0.00066570081 -0.0051060439
Prg max-min : 0.65893745
 
Iteration Number = 18

DILUPBiCG:  Solving for Ux, Initial residual = 0.048316437, Final residual = 2.1360874e-07, No Iterations 3
DILUPBiCG:  Solving for Uz, Initial residual = 0.1103631, Final residual = 1.7099376e-07, No Iterations 3
DILUPBiCG:  Solving for h, Initial residual = 0.022113933, Final residual = 1.9645539e-07, No Iterations 6
DICPCG:  Solving for p_rgh, Initial residual = 0.0063797984, Final residual = 5.4664422e-07, No Iterations 88
time step continuity errors : sum local = 2.3471876e-06, global = -1.9374604e-08, cumulative = -2.2102842e-07
ExecutionTime = 12.02 s  ClockTime = 12 s
Inflow      : -3.4772454e-06 [kg/s]
Outflow     : -3.4783871e-06 [kg/s]
EnergyInflow  : -1.0273946 [W]
EnergyOutflow : -1.027337 [W]
rho max/avg/min : 1.2088505 1.1959862 1.161536
T   max/avg/min : 303.82342 295.08274 291.90915
P   max/avg/min : 101324.91 101316.16 101307.41
Prg max/avg/min : 101325.09 101324.96 101324.42
U   max/avg/min : 0.0045833449 0.00080706013 -0.0051741256
Prg max-min : 0.67079461
 
Iteration Number = 19

DILUPBiCG:  Solving for Ux, Initial residual = 0.049490008, Final residual = 2.2071829e-07, No Iterations 3
DILUPBiCG:  Solving for Uz, Initial residual = 0.1075885, Final residual = 8.7479142e-06, No Iterations 2
DILUPBiCG:  Solving for h, Initial residual = 0.021354538, Final residual = 2.1170989e-06, No Iterations 5
DICPCG:  Solving for p_rgh, Initial residual = 0.0066424852, Final residual = 4.9905602e-07, No Iterations 89
time step continuity errors : sum local = 2.2752163e-06, global = -3.9587832e-08, cumulative = -2.6061625e-07
ExecutionTime = 12.6 s  ClockTime = 12 s
Inflow      : -3.8933465e-06 [kg/s]
Outflow     : -3.8956794e-06 [kg/s]
EnergyInflow  : -1.1503367 [W]
EnergyOutflow : -1.1505083 [W]
rho max/avg/min : 1.2086264 1.1956903 1.1604682
T   max/avg/min : 304.10308 295.1569 291.9633
P   max/avg/min : 101324.91 101316.16 101307.41
Prg max/avg/min : 101325.09 101324.96 101324.41
U   max/avg/min : 0.0046001598 0.00096757085 -0.0052039599
Prg max-min : 0.68203221
 
Iteration Number = 20

DILUPBiCG:  Solving for Ux, Initial residual = 0.050213324, Final residual = 2.3427631e-07, No Iterations 3
DILUPBiCG:  Solving for Uz, Initial residual = 0.10608899, Final residual = 1.7476275e-07, No Iterations 3
DILUPBiCG:  Solving for h, Initial residual = 0.020661246, Final residual = 2.049696e-06, No Iterations 5
DICPCG:  Solving for p_rgh, Initial residual = 0.0067056204, Final residual = 5.1128426e-07, No Iterations 89
time step continuity errors : sum local = 2.4269844e-06, global = -1.6316759e-08, cumulative = -2.7693301e-07
ExecutionTime = 13.29 s  ClockTime = 13 s
Inflow      : -4.5208549e-06 [kg/s]
Outflow     : -4.5218165e-06 [kg/s]
EnergyInflow  : -1.3357417 [W]
EnergyOutflow : -1.3353522 [W]
rho max/avg/min : 1.2083833 1.1953931 1.1594203
T   max/avg/min : 304.37803 295.23142 292.02204
P   max/avg/min : 101324.91 101316.16 101307.41
Prg max/avg/min : 101325.09 101324.95 101324.39
U   max/avg/min : 0.0046043851 0.0011481234 -0.0052041873
Prg max-min : 0.69274212
 
Iteration Number = 21

DILUPBiCG:  Solving for Ux, Initial residual = 0.050998334, Final residual = 2.488322e-07, No Iterations 3
DILUPBiCG:  Solving for Uz, Initial residual = 0.10257082, Final residual = 9.8959051e-06, No Iterations 2
DILUPBiCG:  Solving for h, Initial residual = 0.019932858, Final residual = 3.1710174e-07, No Iterations 6
DICPCG:  Solving for p_rgh, Initial residual = 0.0072593109, Final residual = 6.4009881e-07, No Iterations 89
time step continuity errors : sum local = 3.0341585e-06, global = -4.6022237e-08, cumulative = -3.2295524e-07
ExecutionTime = 13.9 s  ClockTime = 14 s
Inflow      : -5.4700745e-06 [kg/s]
Outflow     : -5.4727866e-06 [kg/s]
EnergyInflow  : -1.6162002 [W]
EnergyOutflow : -1.6161303 [W]
rho max/avg/min : 1.2081852 1.1951129 1.1588657
T   max/avg/min : 304.52373 295.3016 292.06991
P   max/avg/min : 101324.91 101316.16 101307.41
Prg max/avg/min : 101325.08 101324.95 101324.39
U   max/avg/min : 0.0045881198 0.0013499915 -0.0051697917
Prg max-min : 0.69754701
 
Iteration Number = 22

DILUPBiCG:  Solving for Ux, Initial residual = 0.051378013, Final residual = 2.6559674e-07, No Iterations 3
DILUPBiCG:  Solving for Uz, Initial residual = 0.099726475, Final residual = 1.7612651e-07, No Iterations 3
DILUPBiCG:  Solving for h, Initial residual = 0.018019355, Final residual = 1.6087295e-06, No Iterations 5
DICPCG:  Solving for p_rgh, Initial residual = 0.0072157181, Final residual = 6.0809339e-07, No Iterations 89
time step continuity errors : sum local = 3.0290752e-06, global = -5.4083698e-08, cumulative = -3.7703894e-07
ExecutionTime = 14.46 s  ClockTime = 14 s
Inflow      : -6.6467251e-06 [kg/s]
Outflow     : -6.6499123e-06 [kg/s]
EnergyInflow  : -1.963856 [W]
EnergyOutflow : -1.9636775 [W]
rho max/avg/min : 1.2079498 1.1948311 1.1581187
T   max/avg/min : 304.7202 295.37225 292.12685
P   max/avg/min : 101324.91 101316.16 101307.41
Prg max/avg/min : 101325.08 101324.95 101324.37
U   max/avg/min : 0.0045561107 0.0015743333 -0.0050510631
Prg max-min : 0.70433297
 
Iteration Number = 23

DILUPBiCG:  Solving for Ux, Initial residual = 0.052280628, Final residual = 2.8450206e-07, No Iterations 3
DILUPBiCG:  Solving for Uz, Initial residual = 0.095452158, Final residual = 1.5797424e-07, No Iterations 3
DILUPBiCG:  Solving for h, Initial residual = 0.017556914, Final residual = 1.3241336e-06, No Iterations 6
DICPCG:  Solving for p_rgh, Initial residual = 0.0074738123, Final residual = 6.7098255e-07, No Iterations 90
time step continuity errors : sum local = 3.447375e-06, global = -3.9914804e-08, cumulative = -4.1695375e-07
ExecutionTime = 15.07 s  ClockTime = 15 s
Inflow      : -8.1056208e-06 [kg/s]
Outflow     : -8.107973e-06 [kg/s]
EnergyInflow  : -2.3949046 [W]
EnergyOutflow : -2.3941679 [W]
rho max/avg/min : 1.2076948 1.1945484 1.1573294
T   max/avg/min : 304.92806 295.44314 292.18852
P   max/avg/min : 101324.91 101316.16 101307.41
Prg max/avg/min : 101325.07 101324.95 101324.36
U   max/avg/min : 0.0045183897 0.0018224285 -0.0050128963
Prg max-min : 0.71148291
 
Iteration Number = 24

DILUPBiCG:  Solving for Ux, Initial residual = 0.053045487, Final residual = 3.1512534e-07, No Iterations 3
DILUPBiCG:  Solving for Uz, Initial residual = 0.091817442, Final residual = 1.697219e-07, No Iterations 3
DILUPBiCG:  Solving for h, Initial residual = 0.0171227, Final residual = 1.05643e-07, No Iterations 7
DICPCG:  Solving for p_rgh, Initial residual = 0.0076777906, Final residual = 6.8434515e-07, No Iterations 90
time step continuity errors : sum local = 3.6627059e-06, global = -7.7308846e-08, cumulative = -4.9426259e-07
ExecutionTime = 15.67 s  ClockTime = 16 s
Inflow      : -9.8838337e-06 [kg/s]
Outflow     : -9.8883895e-06 [kg/s]
EnergyInflow  : -2.9202992 [W]
EnergyOutflow : -2.9198233 [W]
rho max/avg/min : 1.2074248 1.1942651 1.156529
T   max/avg/min : 305.13914 295.51423 292.25386
P   max/avg/min : 101324.91 101316.16 101307.41
Prg max/avg/min : 101325.07 101324.95 101324.35
U   max/avg/min : 0.0049874511 0.0020944718 -0.0048463879
Prg max-min : 0.71963367
 
Iteration Number = 25

DILUPBiCG:  Solving for Ux, Initial residual = 0.052878336, Final residual = 3.3923119e-07, No Iterations 3
DILUPBiCG:  Solving for Uz, Initial residual = 0.087317562, Final residual = 1.5511781e-07, No Iterations 3
DILUPBiCG:  Solving for h, Initial residual = 0.016708739, Final residual = 1.3043317e-07, No Iterations 7
DICPCG:  Solving for p_rgh, Initial residual = 0.0078883393, Final residual = 6.6937239e-07, No Iterations 91
time step continuity errors : sum local = 3.7328202e-06, global = -3.528191e-08, cumulative = -5.295445e-07
ExecutionTime = 16.3 s  ClockTime = 16 s
Inflow      : -1.1987464e-05 [kg/s]
Outflow     : -1.1989543e-05 [kg/s]
EnergyInflow  : -3.5418424 [W]
EnergyOutflow : -3.5401484 [W]
rho max/avg/min : 1.2071419 1.1939813 1.1557282
T   max/avg/min : 305.35062 295.5855 292.32234
P   max/avg/min : 101324.91 101316.16 101307.41
Prg max/avg/min : 101325.07 101324.94 101324.34
U   max/avg/min : 0.0057009689 0.0023916284 -0.0047427319
Prg max-min : 0.72768204
 
Iteration Number = 26

DILUPBiCG:  Solving for Ux, Initial residual = 0.054475033, Final residual = 3.8105303e-07, No Iterations 3
DILUPBiCG:  Solving for Uz, Initial residual = 0.083346652, Final residual = 1.5678513e-07, No Iterations 3
DILUPBiCG:  Solving for h, Initial residual = 0.016317517, Final residual = 9.2111567e-08, No Iterations 7
DICPCG:  Solving for p_rgh, Initial residual = 0.0081033133, Final residual = 6.0159683e-07, No Iterations 91
time step continuity errors : sum local = 3.5179376e-06, global = -5.8915029e-08, cumulative = -5.8845953e-07
ExecutionTime = 16.92 s  ClockTime = 17 s
Inflow      : -1.4334554e-05 [kg/s]
Outflow     : -1.4338025e-05 [kg/s]
EnergyInflow  : -4.2353187 [W]
EnergyOutflow : -4.2334291 [W]
rho max/avg/min : 1.2068476 1.1936969 1.1549321
T   max/avg/min : 305.56115 295.65693 292.39363
P   max/avg/min : 101324.91 101316.16 101307.41
Prg max/avg/min : 101325.06 101324.94 101324.33
U   max/avg/min : 0.0064851392 0.0027146537 -0.0045891824
Prg max-min : 0.73551512
 
Iteration Number = 27

DILUPBiCG:  Solving for Ux, Initial residual = 0.053796399, Final residual = 4.1672379e-07, No Iterations 3
DILUPBiCG:  Solving for Uz, Initial residual = 0.078903933, Final residual = 1.3990713e-07, No Iterations 3
DILUPBiCG:  Solving for h, Initial residual = 0.015940746, Final residual = 1.4462501e-06, No Iterations 6
DICPCG:  Solving for p_rgh, Initial residual = 0.0083394382, Final residual = 6.3705802e-07, No Iterations 92
time step continuity errors : sum local = 3.8520021e-06, global = -1.1748859e-08, cumulative = -6.0020839e-07
ExecutionTime = 17.54 s  ClockTime = 17 s
Inflow      : -1.6926895e-05 [kg/s]
Outflow     : -1.6927588e-05 [kg/s]
EnergyInflow  : -5.0012577 [W]
EnergyOutflow : -4.9977961 [W]
rho max/avg/min : 1.206543 1.1934122 1.1541432
T   max/avg/min : 305.77004 295.72849 292.46745
P   max/avg/min : 101324.91 101316.16 101307.41
Prg max/avg/min : 101325.06 101324.94 101324.32
U   max/avg/min : 0.0073384878 0.0030641707 -0.0043117947
Prg max-min : 0.7431308
 
Iteration Number = 28

DILUPBiCG:  Solving for Ux, Initial residual = 0.054602045, Final residual = 4.5716181e-07, No Iterations 3
DILUPBiCG:  Solving for Uz, Initial residual = 0.075003495, Final residual = 1.3552662e-07, No Iterations 3
DILUPBiCG:  Solving for h, Initial residual = 0.01558266, Final residual = 1.0142262e-06, No Iterations 6
DICPCG:  Solving for p_rgh, Initial residual = 0.0085621253, Final residual = 7.9923459e-07, No Iterations 91
time step continuity errors : sum local = 4.9333427e-06, global = -7.6758706e-08, cumulative = -6.769671e-07
ExecutionTime = 18.18 s  ClockTime = 18 s
Inflow      : -1.9549617e-05 [kg/s]
Outflow     : -1.9554141e-05 [kg/s]
EnergyInflow  : -5.7761729 [W]
EnergyOutflow : -5.7729079 [W]
rho max/avg/min : 1.2062291 1.1931271 1.1533633
T   max/avg/min : 305.97687 295.80019 292.54356
P   max/avg/min : 101324.91 101316.16 101307.41
Prg max/avg/min : 101325.06 101324.94 101324.31
U   max/avg/min : 0.0082747705 0.0034414167 -0.0042494843
Prg max-min : 0.75054091
 
Iteration Number = 29

DILUPBiCG:  Solving for Ux, Initial residual = 0.054007221, Final residual = 4.97771e-07, No Iterations 3
DILUPBiCG:  Solving for Uz, Initial residual = 0.070844609, Final residual = 1.1560108e-07, No Iterations 3
DILUPBiCG:  Solving for h, Initial residual = 0.015235941, Final residual = 1.313854e-06, No Iterations 6
DICPCG:  Solving for p_rgh, Initial residual = 0.0088598731, Final residual = 7.3816445e-07, No Iterations 92
time step continuity errors : sum local = 4.7465745e-06, global = -3.6015229e-08, cumulative = -7.1298233e-07
ExecutionTime = 18.76 s  ClockTime = 19 s
Inflow      : -2.2368339e-05 [kg/s]
Outflow     : -2.2370461e-05 [kg/s]
EnergyInflow  : -6.6089986 [W]
EnergyOutflow : -6.6038768 [W]
rho max/avg/min : 1.2059067 1.1928417 1.1525931
T   max/avg/min : 306.18138 295.87198 292.62178
P   max/avg/min : 101324.91 101316.16 101307.41
Prg max/avg/min : 101325.05 101324.94 101324.3
U   max/avg/min : 0.0092815367 0.003845971 -0.0050020274
Prg max-min : 0.75772304
 
Iteration Number = 30

DILUPBiCG:  Solving for Ux, Initial residual = 0.054646954, Final residual = 5.4612774e-07, No Iterations 3
DILUPBiCG:  Solving for Uz, Initial residual = 0.067278741, Final residual = 1.1056096e-07, No Iterations 3
DILUPBiCG:  Solving for h, Initial residual = 0.01490325, Final residual = 1.3313527e-06, No Iterations 6
DICPCG:  Solving for p_rgh, Initial residual = 0.0090518493, Final residual = 6.9890674e-07, No Iterations 92
time step continuity errors : sum local = 4.6523902e-06, global = -6.3866225e-08, cumulative = -7.7684855e-07
ExecutionTime = 19.46 s  ClockTime = 19 s
Inflow      : -2.4930574e-05 [kg/s]
Outflow     : -2.4934338e-05 [kg/s]
EnergyInflow  : -7.3660422 [W]
EnergyOutflow : -7.3599826 [W]
rho max/avg/min : 1.2055765 1.1925562 1.1518332
T   max/avg/min : 306.38343 295.94385 292.70194
P   max/avg/min : 101324.91 101316.16 101307.41
Prg max/avg/min : 101325.05 101324.93 101324.29
U   max/avg/min : 0.010373496 0.0042798172 -0.0058026171
Prg max-min : 0.7646641
 
Iteration Number = 31

DILUPBiCG:  Solving for Ux, Initial residual = 0.054678861, Final residual = 5.8054028e-07, No Iterations 3
DILUPBiCG:  Solving for Uz, Initial residual = 0.063445396, Final residual = 9.6089727e-08, No Iterations 3
DILUPBiCG:  Solving for h, Initial residual = 0.01450814, Final residual = 1.2443169e-06, No Iterations 6
DICPCG:  Solving for p_rgh, Initial residual = 0.0096782221, Final residual = 9.1586257e-07, No Iterations 92
time step continuity errors : sum local = 6.2473918e-06, global = -8.051105e-08, cumulative = -8.573596e-07
ExecutionTime = 20.07 s  ClockTime = 20 s
Inflow      : -2.722437e-05 [kg/s]
Outflow     : -2.7229114e-05 [kg/s]
EnergyInflow  : -8.0437721 [W]
EnergyOutflow : -8.0362466 [W]
rho max/avg/min : 1.2053561 1.1922846 1.1514228
T   max/avg/min : 306.49259 296.0121 292.75545
P   max/avg/min : 101324.91 101316.16 101307.41
Prg max/avg/min : 101325.05 101324.93 101324.28
U   max/avg/min : 0.011535208 0.0047431278 -0.0066689023
Prg max-min : 0.76852401
 
Iteration Number = 32

DILUPBiCG:  Solving for Ux, Initial residual = 0.054273371, Final residual = 6.5370525e-07, No Iterations 3
DILUPBiCG:  Solving for Uz, Initial residual = 0.060226991, Final residual = 9.4404994e-08, No Iterations 3
DILUPBiCG:  Solving for h, Initial residual = 0.013370911, Final residual = 1.2849276e-06, No Iterations 6
DICPCG:  Solving for p_rgh, Initial residual = 0.009574199, Final residual = 8.6499365e-07, No Iterations 92
time step continuity errors : sum local = 6.0707291e-06, global = -1.0325909e-07, cumulative = -9.6061869e-07
ExecutionTime = 20.67 s  ClockTime = 21 s
Inflow      : -2.9225245e-05 [kg/s]
Outflow     : -2.923133e-05 [kg/s]
EnergyInflow  : -8.6349551 [W]
EnergyOutflow : -8.6256838 [W]
rho max/avg/min : 1.2050802 1.1920128 1.1508715
T   max/avg/min : 306.63942 296.08049 292.82247
P   max/avg/min : 101324.91 101316.16 101307.41
Prg max/avg/min : 101325.04 101324.93 101324.27
U   max/avg/min : 0.012793693 0.0052355372 -0.0076690044
Prg max-min : 0.77349494
 
Iteration Number = 33

DILUPBiCG:  Solving for Ux, Initial residual = 0.05416804, Final residual = 6.9746228e-07, No Iterations 3
DILUPBiCG:  Solving for Uz, Initial residual = 0.056861484, Final residual = 9.2106382e-08, No Iterations 3
DILUPBiCG:  Solving for h, Initial residual = 0.013107917, Final residual = 1.299972e-06, No Iterations 6
DICPCG:  Solving for p_rgh, Initial residual = 0.0099283257, Final residual = 7.3636337e-07, No Iterations 93
time step continuity errors : sum local = 5.3666575e-06, global = -8.0134001e-08, cumulative = -1.0407527e-06
ExecutionTime = 21.28 s  ClockTime = 21 s
Inflow      : -3.0860308e-05 [kg/s]
Outflow     : -3.086503e-05 [kg/s]
EnergyInflow  : -9.1180544 [W]
EnergyOutflow : -9.1058273 [W]
rho max/avg/min : 1.2047846 1.1917413 1.1502868
T   max/avg/min : 306.79529 296.14883 292.89431
P   max/avg/min : 101324.91 101316.16 101307.41
Prg max/avg/min : 101325.04 101324.93 101324.26
U   max/avg/min : 0.014124461 0.0057569732 -0.0088041101
Prg max-min : 0.77861271
 
Iteration Number = 34

DILUPBiCG:  Solving for Ux, Initial residual = 0.053272783, Final residual = 8.0819449e-07, No Iterations 3
DILUPBiCG:  Solving for Uz, Initial residual = 0.053998923, Final residual = 9.4529504e-08, No Iterations 3
DILUPBiCG:  Solving for h, Initial residual = 0.012853438, Final residual = 1.129154e-06, No Iterations 6
DICPCG:  Solving for p_rgh, Initial residual = 0.010263044, Final residual = 1.0187014e-06, No Iterations 92
time step continuity errors : sum local = 7.5612737e-06, global = -1.5440714e-07, cumulative = -1.1951598e-06
ExecutionTime = 21.87 s  ClockTime = 22 s
Inflow      : -3.2096614e-05 [kg/s]
Outflow     : -3.2105713e-05 [kg/s]
EnergyInflow  : -9.4833362 [W]
EnergyOutflow : -9.4693342 [W]
rho max/avg/min : 1.2044773 1.1914703 1.1496913
T   max/avg/min : 306.95423 296.21707 292.96904
P   max/avg/min : 101324.91 101316.16 101307.41
Prg max/avg/min : 101325.04 101324.93 101324.25
U   max/avg/min : 0.015524559 0.0063069951 -0.0099864914
Prg max-min : 0.7837751
 
Iteration Number = 35

DILUPBiCG:  Solving for Ux, Initial residual = 0.052681857, Final residual = 8.9560476e-07, No Iterations 3
DILUPBiCG:  Solving for Uz, Initial residual = 0.051080858, Final residual = 1.012911e-07, No Iterations 3
DILUPBiCG:  Solving for h, Initial residual = 0.012601963, Final residual = 1.2043598e-06, No Iterations 6
DICPCG:  Solving for p_rgh, Initial residual = 0.01024, Final residual = 7.9881768e-07, No Iterations 93
time step continuity errors : sum local = 6.1627312e-06, global = -1.1397304e-07, cumulative = -1.3091329e-06
ExecutionTime = 22.47 s  ClockTime = 22 s
Inflow      : -3.2250783e-05 [kg/s]
Outflow     : -3.22575e-05 [kg/s]
EnergyInflow  : -9.5288873 [W]
EnergyOutflow : -9.5104474 [W]
rho max/avg/min : 1.2041612 1.1912 1.1490928
T   max/avg/min : 307.11415 296.28519 293.04595
P   max/avg/min : 101324.91 101316.16 101307.41
Prg max/avg/min : 101325.03 101324.93 101324.25
U   max/avg/min : 0.017017802 0.006888404 -0.011226457
Prg max-min : 0.78874608
 
Iteration Number = 36

DILUPBiCG:  Solving for Ux, Initial residual = 0.050557482, Final residual = 1.2724221e-06, No Iterations 3
DILUPBiCG:  Solving for Uz, Initial residual = 0.04844302, Final residual = 1.0869404e-07, No Iterations 3
DILUPBiCG:  Solving for h, Initial residual = 0.012358473, Final residual = 8.6576964e-07, No Iterations 7
DICPCG:  Solving for p_rgh, Initial residual = 0.010411951, Final residual = 7.6140421e-07, No Iterations 93
time step continuity errors : sum local = 6.038964e-06, global = -1.3275531e-07, cumulative = -1.4418882e-06
ExecutionTime = 23.07 s  ClockTime = 23 s
Inflow      : -3.2262693e-05 [kg/s]
Outflow     : -3.2270517e-05 [kg/s]
EnergyInflow  : -9.5324063 [W]
EnergyOutflow : -9.5099748 [W]
rho max/avg/min : 1.203838 1.1909305 1.148495
T   max/avg/min : 307.27403 296.35314 293.12463
P   max/avg/min : 101324.91 101316.16 101307.41
Prg max/avg/min : 101325.03 101324.92 101324.24
U   max/avg/min : 0.018590373 0.0074955518 -0.012486096
Prg max-min : 0.7937773
 
Iteration Number = 37

DILUPBiCG:  Solving for Ux, Initial residual = 0.049843194, Final residual = 1.6891649e-06, No Iterations 3
DILUPBiCG:  Solving for Uz, Initial residual = 0.046031164, Final residual = 1.1279337e-07, No Iterations 3
DILUPBiCG:  Solving for h, Initial residual = 0.012116541, Final residual = 4.8236699e-07, No Iterations 7
DICPCG:  Solving for p_rgh, Initial residual = 0.010139959, Final residual = 8.1892557e-07, No Iterations 93
time step continuity errors : sum local = 6.6584765e-06, global = -1.5557832e-07, cumulative = -1.5974665e-06
ExecutionTime = 23.71 s  ClockTime = 24 s
Inflow      : -3.097101e-05 [kg/s]
Outflow     : -3.0980178e-05 [kg/s]
EnergyInflow  : -9.1507628 [W]
EnergyOutflow : -9.1237013 [W]
rho max/avg/min : 1.2035087 1.1906618 1.1479001
T   max/avg/min : 307.43331 296.42091 293.20483
P   max/avg/min : 101324.91 101316.16 101307.41
Prg max/avg/min : 101325.03 101324.92 101324.23
U   max/avg/min : 0.020233946 0.0081333274 -0.013779105
Prg max-min : 0.79852652
 
Iteration Number = 38

DILUPBiCG:  Solving for Ux, Initial residual = 0.047887353, Final residual = 1.4151252e-06, No Iterations 3
DILUPBiCG:  Solving for Uz, Initial residual = 0.043609926, Final residual = 1.1891608e-07, No Iterations 3
DILUPBiCG:  Solving for h, Initial residual = 0.011881493, Final residual = 2.8354746e-08, No Iterations 8
DICPCG:  Solving for p_rgh, Initial residual = 0.0099777368, Final residual = 7.7696196e-07, No Iterations 93
time step continuity errors : sum local = 6.4911426e-06, global = -1.568093e-07, cumulative = -1.7542758e-06
ExecutionTime = 24.31 s  ClockTime = 24 s
Inflow      : -2.8109525e-05 [kg/s]
Outflow     : -2.8118766e-05 [kg/s]
EnergyInflow  : -8.3053022 [W]
EnergyOutflow : -8.2723679 [W]
rho max/avg/min : 1.2031742 1.1903942 1.1473093
T   max/avg/min : 307.59166 296.48847 293.28635
P   max/avg/min : 101324.91 101316.16 101307.41
Prg max/avg/min : 101325.02 101324.92 101324.22
U   max/avg/min : 0.021948261 0.0088030167 -0.015044923
Prg max-min : 0.80337614
 
Iteration Number = 39

DILUPBiCG:  Solving for Ux, Initial residual = 0.047096438, Final residual = 1.1199346e-06, No Iterations 3
DILUPBiCG:  Solving for Uz, Initial residual = 0.041507472, Final residual = 1.218613e-07, No Iterations 3
DILUPBiCG:  Solving for h, Initial residual = 0.01165454, Final residual = 1.1426147e-06, No Iterations 7
DICPCG:  Solving for p_rgh, Initial residual = 0.010820692, Final residual = 7.8585797e-07, No Iterations 93
time step continuity errors : sum local = 6.7467368e-06, global = -1.7438657e-07, cumulative = -1.9286624e-06
ExecutionTime = 24.93 s  ClockTime = 25 s
Inflow      : -2.4153003e-05 [kg/s]
Outflow     : -2.4163279e-05 [kg/s]
EnergyInflow  : -7.1362993 [W]
EnergyOutflow : -7.0968392 [W]
rho max/avg/min : 1.202835 1.1901275 1.1467234
T   max/avg/min : 307.74887 296.55579 293.36906
P   max/avg/min : 101324.91 101316.16 101307.41
Prg max/avg/min : 101325.02 101324.92 101324.21
U   max/avg/min : 0.023729946 0.0095004547 -0.016303284
Prg max-min : 0.80788381
 
Iteration Number = 40

DILUPBiCG:  Solving for Ux, Initial residual = 0.045856551, Final residual = 1.1253486e-06, No Iterations 3
DILUPBiCG:  Solving for Uz, Initial residual = 0.039528135, Final residual = 1.2421674e-07, No Iterations 3
DILUPBiCG:  Solving for h, Initial residual = 0.011431165, Final residual = 3.7743405e-07, No Iterations 7
DICPCG:  Solving for p_rgh, Initial residual = 0.010174343, Final residual = 7.8333053e-07, No Iterations 93
time step continuity errors : sum local = 6.8939482e-06, global = -1.5046647e-07, cumulative = -2.0791288e-06
ExecutionTime = 25.63 s  ClockTime = 26 s
Inflow      : -1.9544099e-05 [kg/s]
Outflow     : -1.9552967e-05 [kg/s]
EnergyInflow  : -5.7745426 [W]
EnergyOutflow : -5.726794 [W]
rho max/avg/min : 1.2024917 1.1898621 1.1461429
T   max/avg/min : 307.90478 296.62286 293.45281
P   max/avg/min : 101324.91 101316.16 101307.41
Prg max/avg/min : 101325.02 101324.92 101324.2
U   max/avg/min : 0.025598952 0.010222376 -0.017538617
Prg max-min : 0.81241874
 
Iteration Number = 41

DILUPBiCG:  Solving for Ux, Initial residual = 0.044571216, Final residual = 1.1275173e-06, No Iterations 3
DILUPBiCG:  Solving for Uz, Initial residual = 0.037711017, Final residual = 1.2730046e-07, No Iterations 3
DILUPBiCG:  Solving for h, Initial residual = 0.011126457, Final residual = 2.0497715e-07, No Iterations 7
DICPCG:  Solving for p_rgh, Initial residual = 0.0095720968, Final residual = 6.8593289e-07, No Iterations 93
time step continuity errors : sum local = 6.2101886e-06, global = -1.9808993e-07, cumulative = -2.2772187e-06
ExecutionTime = 26.26 s  ClockTime = 26 s
Inflow      : -1.3228675e-05 [kg/s]
Outflow     : -1.3240349e-05 [kg/s]
EnergyInflow  : -3.9085734 [W]
EnergyOutflow : -3.8527563 [W]
rho max/avg/min : 1.2022738 1.1896091 1.1458185
T   max/avg/min : 307.99178 296.68672 293.50601
P   max/avg/min : 101324.91 101316.16 101307.41
Prg max/avg/min : 101325.01 101324.91 101324.2
U   max/avg/min : 0.027546815 0.010972976 -0.018716568
Prg max-min : 0.81515935
 
Iteration Number = 42

DILUPBiCG:  Solving for Ux, Initial residual = 0.044685273, Final residual = 1.2476094e-06, No Iterations 3
DILUPBiCG:  Solving for Uz, Initial residual = 0.03601961, Final residual = 1.2838508e-07, No Iterations 3
DILUPBiCG:  Solving for h, Initial residual = 0.010386443, Final residual = 6.6764582e-07, No Iterations 7
DICPCG:  Solving for p_rgh, Initial residual = 0.0094185376, Final residual = 6.687427e-07, No Iterations 93
time step continuity errors : sum local = 6.2145105e-06, global = -6.1652783e-08, cumulative = -2.3388715e-06
ExecutionTime = 26.91 s  ClockTime = 27 s
Inflow      : -5.5985547e-06 [kg/s]
Outflow     : -5.602188e-06 [kg/s]
EnergyInflow  : -1.6541613 [W]
EnergyOutflow : -1.5860237 [W]
rho max/avg/min : 1.2019965 1.1893572 1.1453882
T   max/avg/min : 308.10743 296.75035 293.5737
P   max/avg/min : 101324.91 101316.16 101307.41
Prg max/avg/min : 101325.01 101324.91 101324.19
U   max/avg/min : 0.029559088 0.011749394 -0.019831015
Prg max-min : 0.81892525
 
Iteration Number = 43

DILUPBiCG:  Solving for Ux, Initial residual = 0.043028518, Final residual = 1.4565327e-06, No Iterations 3
DILUPBiCG:  Solving for Uz, Initial residual = 0.034427891, Final residual = 1.323549e-07, No Iterations 3
DILUPBiCG:  Solving for h, Initial residual = 0.010198076, Final residual = 1.2799929e-07, No Iterations 8
DICPCG:  Solving for p_rgh, Initial residual = 0.0096312454, Final residual = 6.9934771e-07, No Iterations 93
time step continuity errors : sum local = 6.657249e-06, global = -2.4979445e-07, cumulative = -2.588666e-06
ExecutionTime = 27.52 s  ClockTime = 27 s
Inflow      : 4.0517455e-06 [kg/s]
Outflow     : 4.0370249e-06 [kg/s]
EnergyInflow  : 1.1971376 [W]
EnergyOutflow : 1.2734212 [W]
rho max/avg/min : 1.2017003 1.189107 1.1449314
T   max/avg/min : 308.2303 296.81359 293.64607
P   max/avg/min : 101324.91 101316.16 101307.42
Prg max/avg/min : 101325.01 101324.91 101324.19
U   max/avg/min : 0.031635325 0.012553959 -0.021000738
Prg max-min : 0.8222667
 
Iteration Number = 44

DILUPBiCG:  Solving for Ux, Initial residual = 0.043759516, Final residual = 1.4243195e-06, No Iterations 3
DILUPBiCG:  Solving for Uz, Initial residual = 0.033109533, Final residual = 1.3213591e-07, No Iterations 3
DILUPBiCG:  Solving for h, Initial residual = 0.010014018, Final residual = 5.6568553e-07, No Iterations 7
DICPCG:  Solving for p_rgh, Initial residual = 0.0099809059, Final residual = 9.2768505e-07, No Iterations 92
time step continuity errors : sum local = 9.0407112e-06, global = -1.5262892e-07, cumulative = -2.7412949e-06
ExecutionTime = 28.15 s  ClockTime = 28 s
Inflow      : 1.56704e-05 [kg/s]
Outflow     : 1.5661405e-05 [kg/s]
EnergyInflow  : 4.6300108 [W]
EnergyOutflow : 4.721073 [W]
rho max/avg/min : 1.20163 1.1888586 1.1444649
T   max/avg/min : 308.35593 296.87641 293.70373
P   max/avg/min : 101324.91 101316.16 101307.42
Prg max/avg/min : 101325.01 101324.91 101324.18
U   max/avg/min : 0.033774723 0.013385728 -0.022135464
Prg max-min : 0.82706994
 
Iteration Number = 45

DILUPBiCG:  Solving for Ux, Initial residual = 0.041114262, Final residual = 1.4274763e-06, No Iterations 3
DILUPBiCG:  Solving for Uz, Initial residual = 0.03169395, Final residual = 1.3655148e-07, No Iterations 3
DILUPBiCG:  Solving for h, Initial residual = 0.0098284667, Final residual = 9.7958249e-07, No Iterations 7
DICPCG:  Solving for p_rgh, Initial residual = 0.0088810629, Final residual = 8.6083596e-07, No Iterations 92
time step continuity errors : sum local = 8.6196536e-06, global = -2.4280529e-07, cumulative = -2.9841002e-06
ExecutionTime = 28.74 s  ClockTime = 29 s
Inflow      : 2.8436725e-05 [kg/s]
Outflow     : 2.8422417e-05 [kg/s]
EnergyInflow  : 8.4019774 [W]
EnergyOutflow : 8.5058553 [W]
rho max/avg/min : 1.201632 1.1886122 1.1439944
T   max/avg/min : 308.48271 296.93876 293.70323
P   max/avg/min : 101324.91 101316.16 101307.42
Prg max/avg/min : 101325.01 101324.91 101324.17
U   max/avg/min : 0.035972285 0.014237793 -0.023196984
Prg max-min : 0.83411662
 
Iteration Number = 46

DILUPBiCG:  Solving for Ux, Initial residual = 0.043270109, Final residual = 1.7911849e-06, No Iterations 3
DILUPBiCG:  Solving for Uz, Initial residual = 0.030530955, Final residual = 1.3458783e-07, No Iterations 3
DILUPBiCG:  Solving for h, Initial residual = 0.0096479639, Final residual = 3.7280826e-07, No Iterations 8
DICPCG:  Solving for p_rgh, Initial residual = 0.0085449788, Final residual = 7.62216e-07, No Iterations 92
time step continuity errors : sum local = 7.8202094e-06, global = -1.1475559e-07, cumulative = -3.0988558e-06
ExecutionTime = 29.37 s  ClockTime = 29 s
Inflow      : 4.3019513e-05 [kg/s]
Outflow     : 4.3012751e-05 [kg/s]
EnergyInflow  : 12.71064 [W]
EnergyOutflow : 12.832622 [W]
rho max/avg/min : 1.2016344 1.188368 1.143523
T   max/avg/min : 308.60986 297.00062 293.70266
P   max/avg/min : 101324.91 101316.16 101307.42
Prg max/avg/min : 101325.01 101324.91 101324.16
U   max/avg/min : 0.038226326 0.015113568 -0.024191934
Prg max-min : 0.84139597
 
Iteration Number = 47

DILUPBiCG:  Solving for Ux, Initial residual = 0.040183745, Final residual = 1.7858468e-06, No Iterations 3
DILUPBiCG:  Solving for Uz, Initial residual = 0.029384941, Final residual = 1.3920652e-07, No Iterations 3
DILUPBiCG:  Solving for h, Initial residual = 0.0094717606, Final residual = 3.2020142e-07, No Iterations 7
DICPCG:  Solving for p_rgh, Initial residual = 0.0088420309, Final residual = 6.9450495e-07, No Iterations 93
time step continuity errors : sum local = 7.3191277e-06, global = -1.6207862e-07, cumulative = -3.2609344e-06
ExecutionTime = 29.99 s  ClockTime = 30 s
Inflow      : 5.9751038e-05 [kg/s]
Outflow     : 5.9741487e-05 [kg/s]
EnergyInflow  : 17.654173 [W]
EnergyOutflow : 17.793363 [W]
rho max/avg/min : 1.2016367 1.1881259 1.1430524
T   max/avg/min : 308.73692 297.06196 293.70209
P   max/avg/min : 101324.91 101316.16 101307.42
Prg max/avg/min : 101325.01 101324.9 101324.16
U   max/avg/min : 0.04053446 0.016013463 -0.025125476
Prg max-min : 0.84850377
 
Iteration Number = 48

DILUPBiCG:  Solving for Ux, Initial residual = 0.040995401, Final residual = 3.2142848e-06, No Iterations 3
DILUPBiCG:  Solving for Uz, Initial residual = 0.028495474, Final residual = 1.368694e-07, No Iterations 3
DILUPBiCG:  Solving for h, Initial residual = 0.0092974544, Final residual = 5.4532808e-08, No Iterations 9
DICPCG:  Solving for p_rgh, Initial residual = 0.0092396163, Final residual = 8.0960534e-07, No Iterations 91
time step continuity errors : sum local = 8.6691278e-06, global = -2.3405676e-07, cumulative = -3.4949912e-06
ExecutionTime = 30.63 s  ClockTime = 31 s
Inflow      : 7.8752056e-05 [kg/s]
Outflow     : 7.8738263e-05 [kg/s]
EnergyInflow  : 23.268256 [W]
EnergyOutflow : 23.426125 [W]
rho max/avg/min : 1.2016389 1.187886 1.1425833
T   max/avg/min : 308.86364 297.12277 293.70156
P   max/avg/min : 101324.91 101316.16 101307.42
Prg max/avg/min : 101325.01 101324.9 101324.15
U   max/avg/min : 0.042896379 0.01693688 -0.025963249
Prg max-min : 0.8557074
 
Iteration Number = 49

DILUPBiCG:  Solving for Ux, Initial residual = 0.039334472, Final residual = 1.9211281e-06, No Iterations 3
DILUPBiCG:  Solving for Uz, Initial residual = 0.027539991, Final residual = 1.420969e-07, No Iterations 3
DILUPBiCG:  Solving for h, Initial residual = 0.0091259089, Final residual = 3.3859012e-07, No Iterations 8
DICPCG:  Solving for p_rgh, Initial residual = 0.0096562015, Final residual = 9.3271326e-07, No Iterations 92
time step continuity errors : sum local = 1.0144336e-05, global = -2.7831653e-07, cumulative = -3.7733077e-06
ExecutionTime = 31.27 s  ClockTime = 31 s
Inflow      : 9.9900855e-05 [kg/s]
Outflow     : 9.9884454e-05 [kg/s]
EnergyInflow  : 29.516926 [W]
EnergyOutflow : 29.696279 [W]
rho max/avg/min : 1.2016407 1.1876487 1.1421165
T   max/avg/min : 308.98984 297.18299 293.70111
P   max/avg/min : 101324.91 101316.16 101307.42
Prg max/avg/min : 101325.01 101324.9 101324.14
U   max/avg/min : 0.045311852 0.017881644 -0.026784261
Prg max-min : 0.86273007
 
Iteration Number = 50

DILUPBiCG:  Solving for Ux, Initial residual = 0.039214053, Final residual = 2.4193413e-06, No Iterations 3
DILUPBiCG:  Solving for Uz, Initial residual = 0.026811151, Final residual = 1.388656e-07, No Iterations 3
DILUPBiCG:  Solving for h, Initial residual = 0.0089552649, Final residual = 3.4402764e-07, No Iterations 8
DICPCG:  Solving for p_rgh, Initial residual = 0.0091875699, Final residual = 8.0564547e-07, No Iterations 91
time step continuity errors : sum local = 8.8598041e-06, global = -3.6871753e-07, cumulative = -4.1420252e-06
ExecutionTime = 31.98 s  ClockTime = 32 s
Inflow      : 0.00012358792 [kg/s]
Outflow     : 0.00012356619 [kg/s]
EnergyInflow  : 36.515558 [W]
EnergyOutflow : 36.718066 [W]
rho max/avg/min : 1.2016423 1.1874139 1.1416525
T   max/avg/min : 309.11537 297.2426 293.70072
P   max/avg/min : 101324.91 101316.16 101307.42
Prg max/avg/min : 101325.01 101324.9 101324.14
U   max/avg/min : 0.047773816 0.018848856 -0.02748143
Prg max-min : 0.86965712
 
Iteration Number = 51

DILUPBiCG:  Solving for Ux, Initial residual = 0.038601447, Final residual = 2.2706071e-06, No Iterations 3
DILUPBiCG:  Solving for Uz, Initial residual = 0.0261062, Final residual = 1.4272076e-07, No Iterations 3
DILUPBiCG:  Solving for h, Initial residual = 0.0087050769, Final residual = 3.3735261e-07, No Iterations 8
DICPCG:  Solving for p_rgh, Initial residual = 0.0087395741, Final residual = 7.9715099e-07, No Iterations 92
time step continuity errors : sum local = 8.7713067e-06, global = -2.964184e-07, cumulative = -4.4384436e-06
ExecutionTime = 32.63 s  ClockTime = 33 s
Inflow      : 0.00014961974 [kg/s]
Outflow     : 0.00014960228 [kg/s]
EnergyInflow  : 44.206979 [W]
EnergyOutflow : 44.437648 [W]
rho max/avg/min : 1.2016435 1.1871911 1.1413526
T   max/avg/min : 309.18657 297.29913 293.70042
P   max/avg/min : 101324.91 101316.16 101307.42
Prg max/avg/min : 101325.01 101324.9 101324.13
U   max/avg/min : 0.050285257 0.019836165 -0.028111539
Prg max-min : 0.8743377
 
Iteration Number = 52

DILUPBiCG:  Solving for Ux, Initial residual = 0.037936784, Final residual = 2.7878614e-06, No Iterations 3
DILUPBiCG:  Solving for Uz, Initial residual = 0.025502842, Final residual = 1.4213228e-07, No Iterations 3
DILUPBiCG:  Solving for h, Initial residual = 0.0081753078, Final residual = 3.1363634e-07, No Iterations 8
DICPCG:  Solving for p_rgh, Initial residual = 0.0092592679, Final residual = 7.967967e-07, No Iterations 91
time step continuity errors : sum local = 8.6540138e-06, global = -3.6166194e-07, cumulative = -4.8001056e-06
ExecutionTime = 33.23 s  ClockTime = 33 s
Inflow      : 0.00017801214 [kg/s]
Outflow     : 0.00017799082 [kg/s]
EnergyInflow  : 52.595857 [W]
EnergyOutflow : 52.854682 [W]
rho max/avg/min : 1.2016444 1.1869709 1.1409444
T   max/avg/min : 309.2808 297.35505 293.7002
P   max/avg/min : 101324.91 101316.16 101307.42
Prg max/avg/min : 101325.01 101324.9 101324.13
U   max/avg/min : 0.052851161 0.020842496 -0.028681231
Prg max-min : 0.88005454
 
Iteration Number = 53

DILUPBiCG:  Solving for Ux, Initial residual = 0.036977955, Final residual = 1.8127431e-06, No Iterations 3
DILUPBiCG:  Solving for Uz, Initial residual = 0.024969583, Final residual = 1.4615316e-07, No Iterations 3
DILUPBiCG:  Solving for h, Initial residual = 0.0080203149, Final residual = 2.1295979e-07, No Iterations 8
DICPCG:  Solving for p_rgh, Initial residual = 0.010095879, Final residual = 9.5684707e-07, No Iterations 90
time step continuity errors : sum local = 1.019727e-05, global = -3.0707767e-07, cumulative = -5.1071832e-06
ExecutionTime = 33.84 s  ClockTime = 34 s
Inflow      : 0.00020874915 [kg/s]
Outflow     : 0.00020873105 [kg/s]
EnergyInflow  : 61.677482 [W]
EnergyOutflow : 61.969612 [W]
rho max/avg/min : 1.201645 1.1867539 1.1405192
T   max/avg/min : 309.38741 297.41019 293.70005
P   max/avg/min : 101324.91 101316.16 101307.42
Prg max/avg/min : 101325.01 101324.89 101324.12
U   max/avg/min : 0.055464952 0.021866842 -0.029152884
Prg max-min : 0.8859154
 
Iteration Number = 54

DILUPBiCG:  Solving for Ux, Initial residual = 0.035807257, Final residual = 2.8126677e-06, No Iterations 3
DILUPBiCG:  Solving for Uz, Initial residual = 0.024495948, Final residual = 1.4908935e-07, No Iterations 3
DILUPBiCG:  Solving for h, Initial residual = 0.0078647608, Final residual = 2.9384604e-07, No Iterations 8
DICPCG:  Solving for p_rgh, Initial residual = 0.011029607, Final residual = 9.5457049e-07, No Iterations 90
time step continuity errors : sum local = 9.986053e-06, global = -5.465676e-08, cumulative = -5.16184e-06
ExecutionTime = 34.44 s  ClockTime = 34 s
Inflow      : 0.00024201577 [kg/s]
Outflow     : 0.00024201255 [kg/s]
EnergyInflow  : 71.506513 [W]
EnergyOutflow : 71.83831 [W]
rho max/avg/min : 1.2016454 1.1865403 1.1400874
T   max/avg/min : 309.50459 297.46451 293.69996
P   max/avg/min : 101324.91 101316.16 101307.42
Prg max/avg/min : 101325.01 101324.89 101324.12
U   max/avg/min : 0.058116746 0.02290974 -0.029453608
Prg max-min : 0.8919481
 
Iteration Number = 55

DILUPBiCG:  Solving for Ux, Initial residual = 0.034598102, Final residual = 1.9759055e-06, No Iterations 3
DILUPBiCG:  Solving for Uz, Initial residual = 0.024137158, Final residual = 1.5587595e-07, No Iterations 3
DILUPBiCG:  Solving for h, Initial residual = 0.0077089679, Final residual = 4.0550307e-07, No Iterations 8
DICPCG:  Solving for p_rgh, Initial residual = 0.012382822, Final residual = 9.3330944e-07, No Iterations 92
time step continuity errors : sum local = 9.5898671e-06, global = -2.0965702e-07, cumulative = -5.371497e-06
ExecutionTime = 35.06 s  ClockTime = 35 s
Inflow      : 0.00027767702 [kg/s]
Outflow     : 0.00027766466 [kg/s]
EnergyInflow  : 82.043062 [W]
EnergyOutflow : 82.410504 [W]
rho max/avg/min : 1.2016456 1.1863303 1.1396528
T   max/avg/min : 309.62262 297.51798 293.69991
P   max/avg/min : 101324.91 101316.16 101307.42
Prg max/avg/min : 101325.01 101324.89 101324.11
U   max/avg/min : 0.060802308 0.023969073 -0.029729993
Prg max-min : 0.897789
 
Iteration Number = 56

DILUPBiCG:  Solving for Ux, Initial residual = 0.034173217, Final residual = 2.6564076e-06, No Iterations 3
DILUPBiCG:  Solving for Uz, Initial residual = 0.023682107, Final residual = 1.617942e-07, No Iterations 3
DILUPBiCG:  Solving for h, Initial residual = 0.0075498343, Final residual = 6.2191143e-07, No Iterations 8
DICPCG:  Solving for p_rgh, Initial residual = 0.011683607, Final residual = 1.0975268e-06, No Iterations 90
time step continuity errors : sum local = 1.1045452e-05, global = -2.5597539e-07, cumulative = -5.6274724e-06
ExecutionTime = 35.66 s  ClockTime = 36 s
Inflow      : 0.00031654493 [kg/s]
Outflow     : 0.00031652984 [kg/s]
EnergyInflow  : 93.527061 [W]
EnergyOutflow : 93.934972 [W]
rho max/avg/min : 1.2016457 1.1861241 1.1392173
T   max/avg/min : 309.74099 297.57052 293.69981
P   max/avg/min : 101324.91 101316.16 101307.42
Prg max/avg/min : 101325.01 101324.89 101324.1
U   max/avg/min : 0.06352443 0.025048921 -0.0299942
Prg max-min : 0.90398337
 
Iteration Number = 57

DILUPBiCG:  Solving for Ux, Initial residual = 0.032822351, Final residual = 2.0485822e-06, No Iterations 3
DILUPBiCG:  Solving for Uz, Initial residual = 0.023632925, Final residual = 1.7903922e-07, No Iterations 3
DILUPBiCG:  Solving for h, Initial residual = 0.0073978955, Final residual = 3.3774614e-07, No Iterations 8
DICPCG:  Solving for p_rgh, Initial residual = 0.014111233, Final residual = 1.0386556e-06, No Iterations 92
time step continuity errors : sum local = 1.0289825e-05, global = -1.6712302e-07, cumulative = -5.7945954e-06
ExecutionTime = 36.27 s  ClockTime = 36 s
Inflow      : 0.00035904179 [kg/s]
Outflow     : 0.00035903194 [kg/s]
EnergyInflow  : 106.08328 [W]
EnergyOutflow : 106.53784 [W]
rho max/avg/min : 1.2016458 1.1859217 1.1387818
T   max/avg/min : 309.85945 297.62213 293.69971
P   max/avg/min : 101324.91 101316.16 101307.42
Prg max/avg/min : 101325.01 101324.89 101324.1
U   max/avg/min : 0.066281385 0.02615057 -0.030193907
Prg max-min : 0.90959452
 
Iteration Number = 58

DILUPBiCG:  Solving for Ux, Initial residual = 0.033518074, Final residual = 2.8562622e-06, No Iterations 3
DILUPBiCG:  Solving for Uz, Initial residual = 0.023349757, Final residual = 1.9579111e-07, No Iterations 3
DILUPBiCG:  Solving for h, Initial residual = 0.0072435937, Final residual = 3.2353064e-07, No Iterations 8
DICPCG:  Solving for p_rgh, Initial residual = 0.014440765, Final residual = 1.3570342e-06, No Iterations 90
time step continuity errors : sum local = 1.3173847e-05, global = -5.28573e-07, cumulative = -6.3231684e-06
ExecutionTime = 36.88 s  ClockTime = 37 s
Inflow      : 0.00040413464 [kg/s]
Outflow     : 0.00040410349 [kg/s]
EnergyInflow  : 119.40651 [W]
EnergyOutflow : 119.90422 [W]
rho max/avg/min : 1.2016458 1.1857234 1.1383471
T   max/avg/min : 309.97778 297.67275 293.69959
P   max/avg/min : 101324.91 101316.16 101307.42
Prg max/avg/min : 101325.01 101324.89 101324.09
U   max/avg/min : 0.0690681 0.027267592 -0.030324468
Prg max-min : 0.91565113
 
Iteration Number = 59

DILUPBiCG:  Solving for Ux, Initial residual = 0.032053504, Final residual = 2.3651084e-06, No Iterations 3
DILUPBiCG:  Solving for Uz, Initial residual = 0.02306486, Final residual = 2.1458775e-07, No Iterations 3
DILUPBiCG:  Solving for h, Initial residual = 0.0070824792, Final residual = 3.8862139e-07, No Iterations 8
DICPCG:  Solving for p_rgh, Initial residual = 0.014262741, Final residual = 1.2815434e-06, No Iterations 91
time step continuity errors : sum local = 1.2206367e-05, global = 5.885882e-08, cumulative = -6.2643096e-06
ExecutionTime = 37.5 s  ClockTime = 37 s
Inflow      : 0.00045118199 [kg/s]
Outflow     : 0.00045118546 [kg/s]
EnergyInflow  : 133.30722 [W]
EnergyOutflow : 133.8672 [W]
rho max/avg/min : 1.2016458 1.1855295 1.1379136
T   max/avg/min : 310.09586 297.72232 293.69944
P   max/avg/min : 101324.91 101316.16 101307.42
Prg max/avg/min : 101325.01 101324.88 101324.09
U   max/avg/min : 0.071881251 0.028396485 -0.030340873
Prg max-min : 0.92154831
 
Iteration Number = 60

DILUPBiCG:  Solving for Ux, Initial residual = 0.032617895, Final residual = 2.343656e-07, No Iterations 4
DILUPBiCG:  Solving for Uz, Initial residual = 0.022672941, Final residual = 2.3261264e-07, No Iterations 3
DILUPBiCG:  Solving for h, Initial residual = 0.006921893, Final residual = 1.5718978e-07, No Iterations 11
DICPCG:  Solving for p_rgh, Initial residual = 0.014749593, Final residual = 1.3297959e-06, No Iterations 91
time step continuity errors : sum local = 1.2409771e-05, global = -3.5392175e-07, cumulative = -6.6182314e-06
ExecutionTime = 38.22 s  ClockTime = 38 s
Inflow      : 0.00050089321 [kg/s]
Outflow     : 0.00050087235 [kg/s]
EnergyInflow  : 147.99501 [W]
EnergyOutflow : 148.60254 [W]
rho max/avg/min : 1.2016458 1.1853399 1.1374817
T   max/avg/min : 310.2136 297.77081 293.69928
P   max/avg/min : 101324.91 101316.16 101307.42
Prg max/avg/min : 101325.01 101324.88 101324.08
U   max/avg/min : 0.074717993 0.029540371 -0.030303913
Prg max-min : 0.92779363
 
Iteration Number = 61

DILUPBiCG:  Solving for Ux, Initial residual = 0.031173731, Final residual = 7.3445105e-08, No Iterations 4
DILUPBiCG:  Solving for Uz, Initial residual = 0.022620558, Final residual = 2.6586321e-07, No Iterations 3
DILUPBiCG:  Solving for h, Initial residual = 0.0067028654, Final residual = 1.1147428e-07, No Iterations 9
DICPCG:  Solving for p_rgh, Initial residual = 0.015412731, Final residual = 1.2240987e-06, No Iterations 92
time step continuity errors : sum local = 1.1214117e-05, global = 4.7875253e-07, cumulative = -6.1394788e-06
ExecutionTime = 38.84 s  ClockTime = 39 s
Inflow      : 0.00055387083 [kg/s]
Outflow     : 0.00055389904 [kg/s]
EnergyInflow  : 163.64789 [W]
EnergyOutflow : 164.32788 [W]
rho max/avg/min : 1.2016458 1.1851629 1.1371829
T   max/avg/min : 310.29512 297.8161 293.69909
P   max/avg/min : 101324.91 101316.16 101307.42
Prg max/avg/min : 101325.01 101324.88 101324.08
U   max/avg/min : 0.077581307 0.030702457 -0.030179106
Prg max-min : 0.93155346
 
Iteration Number = 62

DILUPBiCG:  Solving for Ux, Initial residual = 0.031554878, Final residual = 2.940253e-06, No Iterations 3
DILUPBiCG:  Solving for Uz, Initial residual = 0.022459889, Final residual = 2.9759766e-07, No Iterations 3
DILUPBiCG:  Solving for h, Initial residual = 0.0062739842, Final residual = 2.4436761e-07, No Iterations 8
DICPCG:  Solving for p_rgh, Initial residual = 0.017265349, Final residual = 1.5826871e-06, No Iterations 90
time step continuity errors : sum local = 1.4252989e-05, global = 1.0128694e-06, cumulative = -5.1266095e-06
ExecutionTime = 39.47 s  ClockTime = 39 s
Inflow      : 0.00060495391 [kg/s]
Outflow     : 0.0006050136 [kg/s]
EnergyInflow  : 178.74101 [W]
EnergyOutflow : 179.48988 [W]
rho max/avg/min : 1.2016458 1.1849903 1.1368275
T   max/avg/min : 310.39212 297.86031 293.69891
P   max/avg/min : 101324.91 101316.16 101307.42
Prg max/avg/min : 101325.01 101324.88 101324.07
U   max/avg/min : 0.080453477 0.031856537 -0.030031656
Prg max-min : 0.93720665
 
Iteration Number = 63

DILUPBiCG:  Solving for Ux, Initial residual = 0.030290729, Final residual = 2.2719949e-06, No Iterations 3
DILUPBiCG:  Solving for Uz, Initial residual = 0.021199172, Final residual = 2.8930625e-07, No Iterations 3
DILUPBiCG:  Solving for h, Initial residual = 0.0061295505, Final residual = 2.1992876e-07, No Iterations 11
DICPCG:  Solving for p_rgh, Initial residual = 0.020371787, Final residual = 1.7478584e-06, No Iterations 91
time step continuity errors : sum local = 1.5568036e-05, global = 8.880599e-07, cumulative = -4.2385496e-06
ExecutionTime = 40.12 s  ClockTime = 40 s
Inflow      : 0.00066138716 [kg/s]
Outflow     : 0.00066143949 [kg/s]
EnergyInflow  : 195.4149 [W]
EnergyOutflow : 196.22639 [W]
rho max/avg/min : 1.2016458 1.1848223 1.1364573
T   max/avg/min : 310.49322 297.90338 293.69871
P   max/avg/min : 101324.91 101316.16 101307.42
Prg max/avg/min : 101325.01 101324.88 101324.06
U   max/avg/min : 0.083345659 0.033037712 -0.029771538
Prg max-min : 0.9414136
 
Iteration Number = 64

DILUPBiCG:  Solving for Ux, Initial residual = 0.030741854, Final residual = 7.889341e-08, No Iterations 4
DILUPBiCG:  Solving for Uz, Initial residual = 0.02265236, Final residual = 3.806694e-07, No Iterations 3
DILUPBiCG:  Solving for h, Initial residual = 0.005987629, Final residual = 3.773472e-07, No Iterations 9
DICPCG:  Solving for p_rgh, Initial residual = 0.021311813, Final residual = 2.0997187e-06, No Iterations 92
time step continuity errors : sum local = 1.8546473e-05, global = 9.7142061e-07, cumulative = -3.2671289e-06
ExecutionTime = 40.76 s  ClockTime = 41 s
Inflow      : 0.00071999904 [kg/s]
Outflow     : 0.00072005628 [kg/s]
EnergyInflow  : 212.7325 [W]
EnergyOutflow : 213.61332 [W]
rho max/avg/min : 1.2016458 1.1846593 1.1360812
T   max/avg/min : 310.59602 297.94524 293.69848
P   max/avg/min : 101324.91 101316.16 101307.42
Prg max/avg/min : 101325.01 101324.88 101324.06
U   max/avg/min : 0.086257852 0.034234009 -0.029378261
Prg max-min : 0.94707475
 
Iteration Number = 65

DILUPBiCG:  Solving for Ux, Initial residual = 0.029854731, Final residual = 2.0942222e-06, No Iterations 3
DILUPBiCG:  Solving for Uz, Initial residual = 0.021040117, Final residual = 3.5714037e-07, No Iterations 3
DILUPBiCG:  Solving for h, Initial residual = 0.0058460865, Final residual = 5.326139e-07, No Iterations 11
DICPCG:  Solving for p_rgh, Initial residual = 0.019766731, Final residual = 1.8976976e-06, No Iterations 101
time step continuity errors : sum local = 1.6516899e-05, global = 4.64099e-07, cumulative = -2.8030299e-06
ExecutionTime = 41.42 s  ClockTime = 41 s
Inflow      : 0.00077806733 [kg/s]
Outflow     : 0.00077809468 [kg/s]
EnergyInflow  : 229.88948 [W]
EnergyOutflow : 230.83032 [W]
rho max/avg/min : 1.2016458 1.1845014 1.1357023
T   max/avg/min : 310.69964 297.98587 293.69824
P   max/avg/min : 101324.91 101316.16 101307.42
Prg max/avg/min : 101325 101324.87 101324.05
U   max/avg/min : 0.089177014 0.035428563 -0.028810497
Prg max-min : 0.95151874
 
Iteration Number = 66

DILUPBiCG:  Solving for Ux, Initial residual = 0.030469781, Final residual = 1.618059e-06, No Iterations 3
DILUPBiCG:  Solving for Uz, Initial residual = 0.021552338, Final residual = 4.0718557e-07, No Iterations 3
DILUPBiCG:  Solving for h, Initial residual = 0.0057097271, Final residual = 1.5656733e-07, No Iterations 11
DICPCG:  Solving for p_rgh, Initial residual = 0.0191056, Final residual = 1.8455361e-06, No Iterations 92
time step continuity errors : sum local = 1.5889437e-05, global = -1.3077386e-07, cumulative = -2.9338038e-06
ExecutionTime = 42.06 s  ClockTime = 42 s
Inflow      : 0.00084167133 [kg/s]
Outflow     : 0.00084166362 [kg/s]
EnergyInflow  : 248.68206 [W]
EnergyOutflow : 249.68389 [W]
rho max/avg/min : 1.2016458 1.1843483 1.1353221
T   max/avg/min : 310.80368 298.0253 293.698
P   max/avg/min : 101324.91 101316.16 101307.42
Prg max/avg/min : 101325 101324.87 101324.05
U   max/avg/min : 0.09212079 0.036655329 -0.028117175
Prg max-min : 0.95763038
 
Iteration Number = 67

DILUPBiCG:  Solving for Ux, Initial residual = 0.029663982, Final residual = 9.7881878e-08, No Iterations 4
DILUPBiCG:  Solving for Uz, Initial residual = 0.021652511, Final residual = 4.3819064e-07, No Iterations 3
DILUPBiCG:  Solving for h, Initial residual = 0.0055872883, Final residual = 5.2835645e-07, No Iterations 11
DICPCG:  Solving for p_rgh, Initial residual = 0.021516902, Final residual = 1.9763138e-06, No Iterations 92
time step continuity errors : sum local = 1.6761505e-05, global = -9.533453e-07, cumulative = -3.8871491e-06
ExecutionTime = 42.71 s  ClockTime = 43 s
Inflow      : 0.00090287128 [kg/s]
Outflow     : 0.0009028151 [kg/s]
EnergyInflow  : 266.76434 [W]
EnergyOutflow : 267.82188 [W]
rho max/avg/min : 1.2016458 1.1842002 1.1349417
T   max/avg/min : 310.90786 298.0635 293.69772
P   max/avg/min : 101324.91 101316.16 101307.42
Prg max/avg/min : 101325 101324.87 101324.04
U   max/avg/min : 0.095077362 0.037874727 -0.027346612
Prg max-min : 0.96211763
 
Iteration Number = 68

DILUPBiCG:  Solving for Ux, Initial residual = 0.031182384, Final residual = 1.5966107e-06, No Iterations 3
DILUPBiCG:  Solving for Uz, Initial residual = 0.020364121, Final residual = 4.0717102e-07, No Iterations 3
DILUPBiCG:  Solving for h, Initial residual = 0.005461482, Final residual = 2.6684932e-07, No Iterations 11
DICPCG:  Solving for p_rgh, Initial residual = 0.020357458, Final residual = 1.7962186e-06, No Iterations 92
time step continuity errors : sum local = 1.4898278e-05, global = -1.0640526e-06, cumulative = -4.9512017e-06
ExecutionTime = 43.35 s  ClockTime = 43 s
Inflow      : 0.00096867963 [kg/s]
Outflow     : 0.00096861692 [kg/s]
EnergyInflow  : 286.20821 [W]
EnergyOutflow : 287.33564 [W]
rho max/avg/min : 1.2016458 1.1840569 1.1345616
T   max/avg/min : 311.01201 298.10052 293.69745
P   max/avg/min : 101324.91 101316.16 101307.42
Prg max/avg/min : 101325 101324.87 101324.03
U   max/avg/min : 0.098048987 0.039121284 -0.026472176
Prg max-min : 0.9694327
 
Iteration Number = 69

DILUPBiCG:  Solving for Ux, Initial residual = 0.030004941, Final residual = 1.602251e-06, No Iterations 3
DILUPBiCG:  Solving for Uz, Initial residual = 0.021956153, Final residual = 4.9057144e-07, No Iterations 3
DILUPBiCG:  Solving for h, Initial residual = 0.0053555383, Final residual = 3.2261491e-07, No Iterations 11
DICPCG:  Solving for p_rgh, Initial residual = 0.025384075, Final residual = 1.9722015e-06, No Iterations 92
time step continuity errors : sum local = 1.6056907e-05, global = -7.7032513e-07, cumulative = -5.7215268e-06
ExecutionTime = 43.99 s  ClockTime = 44 s
Inflow      : 0.001036351 [kg/s]
Outflow     : 0.0010363056 [kg/s]
EnergyInflow  : 306.20256 [W]
EnergyOutflow : 307.40953 [W]
rho max/avg/min : 1.2016458 1.1839183 1.1341822
T   max/avg/min : 311.11604 298.1364 293.69714
P   max/avg/min : 101324.91 101316.16 101307.42
Prg max/avg/min : 101325 101324.87 101324.03
U   max/avg/min : 0.10104517 0.040385644 -0.02524245
Prg max-min : 0.97236103
 
Iteration Number = 70

DILUPBiCG:  Solving for Ux, Initial residual = 0.031658055, Final residual = 2.2061806e-06, No Iterations 3
DILUPBiCG:  Solving for Uz, Initial residual = 0.020470741, Final residual = 4.4194335e-07, No Iterations 3
DILUPBiCG:  Solving for h, Initial residual = 0.0052445042, Final residual = 2.3316975e-07, No Iterations 11
DICPCG:  Solving for p_rgh, Initial residual = 0.023676451, Final residual = 2.271204e-06, No Iterations 108
time step continuity errors : sum local = 1.793982e-05, global = 4.7958841e-07, cumulative = -5.2419384e-06
ExecutionTime = 44.79 s  ClockTime = 45 s
Inflow      : 0.0011030478 [kg/s]
Outflow     : 0.0011030761 [kg/s]
EnergyInflow  : 325.90893 [W]
EnergyOutflow : 327.20948 [W]
rho max/avg/min : 1.2016458 1.1837843 1.133804
T   max/avg/min : 311.21984 298.17114 293.69685
P   max/avg/min : 101324.91 101316.16 101307.41
Prg max/avg/min : 101325 101324.87 101324.02
U   max/avg/min : 0.10405508 0.041649689 -0.023937497
Prg max-min : 0.98005222
 
Iteration Number = 71

DILUPBiCG:  Solving for Ux, Initial residual = 0.031142241, Final residual = 8.3576905e-08, No Iterations 4
DILUPBiCG:  Solving for Uz, Initial residual = 0.021090576, Final residual = 4.7507846e-07, No Iterations 3
DILUPBiCG:  Solving for h, Initial residual = 0.0051201686, Final residual = 3.4988742e-07, No Iterations 11
DICPCG:  Solving for p_rgh, Initial residual = 0.023648042, Final residual = 2.2483007e-06, No Iterations 100
time step continuity errors : sum local = 1.7272975e-05, global = -4.1315593e-07, cumulative = -5.6550943e-06
ExecutionTime = 45.47 s  ClockTime = 45 s
Inflow      : 0.0011686435 [kg/s]
Outflow     : 0.0011686191 [kg/s]
EnergyInflow  : 345.28998 [W]
EnergyOutflow : 346.64401 [W]
rho max/avg/min : 1.2016458 1.1836624 1.1335445
T   max/avg/min : 311.29106 298.20277 293.6965
P   max/avg/min : 101324.91 101316.16 101307.41
Prg max/avg/min : 101325 101324.86 101324.02
U   max/avg/min : 0.10707791 0.0429159 -0.022506994
Prg max-min : 0.98250523
 
Iteration Number = 72

DILUPBiCG:  Solving for Ux, Initial residual = 0.032896673, Final residual = 1.9778385e-06, No Iterations 3
DILUPBiCG:  Solving for Uz, Initial residual = 0.019845345, Final residual = 4.394506e-07, No Iterations 3
DILUPBiCG:  Solving for h, Initial residual = 0.0047593943, Final residual = 1.2017598e-07, No Iterations 12
DICPCG:  Solving for p_rgh, Initial residual = 0.024211447, Final residual = 2.3652747e-06, No Iterations 106
time step continuity errors : sum local = 1.7590593e-05, global = -4.3150379e-07, cumulative = -6.0865981e-06
ExecutionTime = 46.16 s  ClockTime = 46 s
Inflow      : 0.0012393971 [kg/s]
Outflow     : 0.0012393717 [kg/s]
EnergyInflow  : 366.19499 [W]
EnergyOutflow : 367.61732 [W]
rho max/avg/min : 1.2016458 1.1835443 1.1332342
T   max/avg/min : 311.37631 298.23345 293.69619
P   max/avg/min : 101324.91 101316.16 101307.41
Prg max/avg/min : 101325 101324.86 101324.01
U   max/avg/min : 0.11013766 0.044213581 -0.020790454
Prg max-min : 0.99064799
 
Iteration Number = 73

DILUPBiCG:  Solving for Ux, Initial residual = 0.032927394, Final residual = 9.4466869e-08, No Iterations 4
DILUPBiCG:  Solving for Uz, Initial residual = 0.021687959, Final residual = 5.2030725e-07, No Iterations 3
DILUPBiCG:  Solving for h, Initial residual = 0.0046699889, Final residual = 2.7884119e-07, No Iterations 11
DICPCG:  Solving for p_rgh, Initial residual = 0.027279169, Final residual = 2.2269478e-06, No Iterations 103
time step continuity errors : sum local = 1.6027174e-05, global = 9.1740237e-08, cumulative = -5.9948579e-06
ExecutionTime = 46.87 s  ClockTime = 47 s
Inflow      : 0.0013019483 [kg/s]
Outflow     : 0.0013019537 [kg/s]
EnergyInflow  : 384.67651 [W]
EnergyOutflow : 386.17044 [W]
rho max/avg/min : 1.2016458 1.1834304 1.1329103
T   max/avg/min : 311.46532 298.26309 293.69581
P   max/avg/min : 101324.91 101316.16 101307.41
Prg max/avg/min : 101325 101324.86 101324.01
U   max/avg/min : 0.11319979 0.045478003 -0.019050894
Prg max-min : 0.99246387
 
Iteration Number = 74

DILUPBiCG:  Solving for Ux, Initial residual = 0.035040496, Final residual = 3.274785e-06, No Iterations 3
DILUPBiCG:  Solving for Uz, Initial residual = 0.017827972, Final residual = 3.7824674e-07, No Iterations 3
DILUPBiCG:  Solving for h, Initial residual = 0.004571511, Final residual = 1.4442693e-07, No Iterations 11
DICPCG:  Solving for p_rgh, Initial residual = 0.029858586, Final residual = 2.7509673e-06, No Iterations 111
time step continuity errors : sum local = 1.9045855e-05, global = -4.8090716e-07, cumulative = -6.4757651e-06
ExecutionTime = 47.54 s  ClockTime = 47 s
Inflow      : 0.0013673046 [kg/s]
Outflow     : 0.0013672762 [kg/s]
EnergyInflow  : 403.98682 [W]
EnergyOutflow : 405.53148 [W]
rho max/avg/min : 1.2016458 1.1833203 1.1325808
T   max/avg/min : 311.55594 298.29181 293.6955
P   max/avg/min : 101324.91 101316.16 101307.41
Prg max/avg/min : 101325 101324.86 101324
U   max/avg/min : 0.11628919 0.046758363 -0.017186251
Prg max-min : 1.0022369
 
Iteration Number = 75

DILUPBiCG:  Solving for Ux, Initial residual = 0.033482386, Final residual = 3.0523443e-06, No Iterations 3
DILUPBiCG:  Solving for Uz, Initial residual = 0.021458456, Final residual = 5.1945317e-07, No Iterations 3
DILUPBiCG:  Solving for h, Initial residual = 0.0044770285, Final residual = 1.2181592e-07, No Iterations 11
DICPCG:  Solving for p_rgh, Initial residual = 0.036475973, Final residual = 3.4924619e-06, No Iterations 103
time step continuity errors : sum local = 2.3438652e-05, global = -6.4926806e-07, cumulative = -7.1250331e-06
ExecutionTime = 48.21 s  ClockTime = 48 s
Inflow      : 0.0014328287 [kg/s]
Outflow     : 0.0014327904 [kg/s]
EnergyInflow  : 423.34672 [W]
EnergyOutflow : 424.94735 [W]
rho max/avg/min : 1.2016458 1.1832138 1.1322485
T   max/avg/min : 311.64736 298.31965 293.69511
P   max/avg/min : 101324.91 101316.16 101307.41
Prg max/avg/min : 101325 101324.86 101323.99
U   max/avg/min : 0.11942242 0.048049907 -0.015004321
Prg max-min : 1.0045925
 
Iteration Number = 76

DILUPBiCG:  Solving for Ux, Initial residual = 0.034274423, Final residual = 1.0374043e-07, No Iterations 4
DILUPBiCG:  Solving for Uz, Initial residual = 0.017807223, Final residual = 3.8544018e-07, No Iterations 3
DILUPBiCG:  Solving for h, Initial residual = 0.0043740786, Final residual = 2.4023606e-07, No Iterations 10
DICPCG:  Solving for p_rgh, Initial residual = 0.035872982, Final residual = 3.2597802e-06, No Iterations 102
time step continuity errors : sum local = 2.0954453e-05, global = 1.3863264e-07, cumulative = -6.9864005e-06
ExecutionTime = 48.88 s  ClockTime = 49 s
Inflow      : 0.0014932813 [kg/s]
Outflow     : 0.0014932894 [kg/s]
EnergyInflow  : 441.20817 [W]
EnergyOutflow : 442.87716 [W]
rho max/avg/min : 1.2016458 1.1831105 1.131915
T   max/avg/min : 311.7392 298.34667 293.69478
P   max/avg/min : 101324.91 101316.16 101307.41
Prg max/avg/min : 101325 101324.86 101323.99
U   max/avg/min : 0.12262029 0.049315652 -0.012635475
Prg max-min : 1.0128953
 
Iteration Number = 77

DILUPBiCG:  Solving for Ux, Initial residual = 0.033896526, Final residual = 8.240017e-08, No Iterations 4
DILUPBiCG:  Solving for Uz, Initial residual = 0.019424193, Final residual = 4.4906212e-07, No Iterations 3
DILUPBiCG:  Solving for h, Initial residual = 0.0042614453, Final residual = 3.8052443e-07, No Iterations 10
DICPCG:  Solving for p_rgh, Initial residual = 0.022437702, Final residual = 2.1629552e-06, No Iterations 102
time step continuity errors : sum local = 1.3645455e-05, global = 9.9857634e-08, cumulative = -6.8865428e-06
ExecutionTime = 49.53 s  ClockTime = 49 s
Inflow      : 0.0015506851 [kg/s]
Outflow     : 0.001550691 [kg/s]
EnergyInflow  : 458.16884 [W]
EnergyOutflow : 459.88616 [W]
rho max/avg/min : 1.2016458 1.1830102 1.1315809
T   max/avg/min : 311.83122 298.37294 293.69439
P   max/avg/min : 101324.91 101316.16 101307.41
Prg max/avg/min : 101325 101324.86 101323.98
U   max/avg/min : 0.12585387 0.050571455 -0.0098178648
Prg max-min : 1.0162174
 
Iteration Number = 78

DILUPBiCG:  Solving for Ux, Initial residual = 0.034648428, Final residual = 7.2971948e-08, No Iterations 4
[...]
DILUPBiCG:  Solving for Uz, Initial residual = 0.0001944865, Final residual = 4.4730729e-09, No Iterations 3
DILUPBiCG:  Solving for h, Initial residual = 4.6008865e-06, Final residual = 6.8436601e-10, No Iterations 9
DICPCG:  Solving for p_rgh, Initial residual = 0.0084903845, Final residual = 7.0570191e-07, No Iterations 100
time step continuity errors : sum local = 1.926886e-06, global = -4.4833255e-09, cumulative = -1.0489298e-05
ExecutionTime = 1436.33 s  ClockTime = 1437 s
Inflow      : 0.0064177299 [kg/s]
Outflow     : 0.0064177297 [kg/s]
EnergyInflow  : 1896.1966 [W]
EnergyOutflow : 1898.7105 [W]
rho max/avg/min : 1.2050141 1.1818645 1.1220343
T   max/avg/min : 314.48435 298.69465 292.87886
P   max/avg/min : 101324.9 101316.15 101307.4
Prg max/avg/min : 101324.99 101324.83 101323.83
U   max/avg/min : 0.43530083 0.17953299 0
Prg max-min : 1.1619851
 
Iteration Number = 1982

DILUPBiCG:  Solving for Ux, Initial residual = 0.034563276, Final residual = 5.1436903e-07, No Iterations 3
DILUPBiCG:  Solving for Uz, Initial residual = 0.00018474403, Final residual = 3.8741095e-09, No Iterations 3
DILUPBiCG:  Solving for h, Initial residual = 4.5268204e-06, Final residual = 1.3212529e-10, No Iterations 11
DICPCG:  Solving for p_rgh, Initial residual = 0.0084955205, Final residual = 8.4519282e-07, No Iterations 98
time step continuity errors : sum local = 2.3041221e-06, global = 2.400993e-08, cumulative = -1.0465288e-05
ExecutionTime = 1436.94 s  ClockTime = 1438 s
Inflow      : 0.0064188327 [kg/s]
Outflow     : 0.0064188341 [kg/s]
EnergyInflow  : 1896.5224 [W]
EnergyOutflow : 1899.0368 [W]
rho max/avg/min : 1.2050148 1.1818647 1.1220344
T   max/avg/min : 314.48432 298.6946 292.87869
P   max/avg/min : 101324.9 101316.15 101307.4
Prg max/avg/min : 101324.99 101324.83 101323.83
U   max/avg/min : 0.43530362 0.17954526 0
Prg max-min : 1.1618505
 
Iteration Number = 1983

DILUPBiCG:  Solving for Ux, Initial residual = 0.034594294, Final residual = 5.1329764e-07, No Iterations 3
DILUPBiCG:  Solving for Uz, Initial residual = 0.00019092494, Final residual = 4.4466211e-09, No Iterations 3
DILUPBiCG:  Solving for h, Initial residual = 4.5358321e-06, Final residual = 2.7211406e-10, No Iterations 11
DICPCG:  Solving for p_rgh, Initial residual = 0.0084917981, Final residual = 8.0880977e-07, No Iterations 99
time step continuity errors : sum local = 2.206097e-06, global = -2.2186497e-08, cumulative = -1.0487475e-05
ExecutionTime = 1437.6 s  ClockTime = 1439 s
Inflow      : 0.006419955 [kg/s]
Outflow     : 0.0064199537 [kg/s]
EnergyInflow  : 1896.854 [W]
EnergyOutflow : 1899.3676 [W]
rho max/avg/min : 1.2050156 1.1818649 1.1220345
T   max/avg/min : 314.48429 298.69455 292.87851
P   max/avg/min : 101324.9 101316.15 101307.4
Prg max/avg/min : 101324.99 101324.83 101323.83
U   max/avg/min : 0.43530672 0.17955765 0
Prg max-min : 1.1619963
 
Iteration Number = 1984

DILUPBiCG:  Solving for Ux, Initial residual = 0.034596717, Final residual = 5.1672286e-07, No Iterations 3
DILUPBiCG:  Solving for Uz, Initial residual = 0.00018787439, Final residual = 3.9748783e-09, No Iterations 3
DILUPBiCG:  Solving for h, Initial residual = 4.5421047e-06, Final residual = 1.3955731e-10, No Iterations 11
DICPCG:  Solving for p_rgh, Initial residual = 0.0084967231, Final residual = 8.1155472e-07, No Iterations 82
time step continuity errors : sum local = 2.2099628e-06, global = -1.5550156e-08, cumulative = -1.0503025e-05
ExecutionTime = 1438.17 s  ClockTime = 1439 s
Inflow      : 0.0064210667 [kg/s]
Outflow     : 0.0064210658 [kg/s]
EnergyInflow  : 1897.1825 [W]
EnergyOutflow : 1899.6962 [W]
rho max/avg/min : 1.2050164 1.1818651 1.1220346
T   max/avg/min : 314.48426 298.6945 292.87832
P   max/avg/min : 101324.9 101316.15 101307.4
Prg max/avg/min : 101324.99 101324.83 101323.83
U   max/avg/min : 0.43530949 0.17956997 0
Prg max-min : 1.1618499
 
Iteration Number = 1985

DILUPBiCG:  Solving for Ux, Initial residual = 0.034578549, Final residual = 5.1342188e-07, No Iterations 3
DILUPBiCG:  Solving for Uz, Initial residual = 0.00018931786, Final residual = 4.4330551e-09, No Iterations 3
DILUPBiCG:  Solving for h, Initial residual = 4.5526392e-06, Final residual = 1.9051015e-10, No Iterations 11
DICPCG:  Solving for p_rgh, Initial residual = 0.0085003429, Final residual = 6.6350032e-07, No Iterations 100
time step continuity errors : sum local = 1.8134247e-06, global = 4.2166681e-09, cumulative = -1.0498808e-05
ExecutionTime = 1438.82 s  ClockTime = 1440 s
Inflow      : 0.0064221729 [kg/s]
Outflow     : 0.0064221731 [kg/s]
EnergyInflow  : 1897.5093 [W]
EnergyOutflow : 1900.0234 [W]
rho max/avg/min : 1.2050172 1.1818653 1.1220347
T   max/avg/min : 314.48423 298.69444 292.87812
P   max/avg/min : 101324.9 101316.15 101307.4
Prg max/avg/min : 101324.99 101324.83 101323.83
U   max/avg/min : 0.43531257 0.17958226 0
Prg max-min : 1.1619742
 
Iteration Number = 1986

DILUPBiCG:  Solving for Ux, Initial residual = 0.034634405, Final residual = 5.1523434e-07, No Iterations 3
DILUPBiCG:  Solving for Uz, Initial residual = 0.00018763284, Final residual = 4.2277756e-09, No Iterations 3
DILUPBiCG:  Solving for h, Initial residual = 4.5596425e-06, Final residual = 8.8137033e-10, No Iterations 10
DICPCG:  Solving for p_rgh, Initial residual = 0.0084966853, Final residual = 8.035081e-07, No Iterations 97
time step continuity errors : sum local = 2.1915822e-06, global = 3.4729267e-08, cumulative = -1.0464079e-05
ExecutionTime = 1439.43 s  ClockTime = 1441 s
Inflow      : 0.0064232918 [kg/s]
Outflow     : 0.0064232939 [kg/s]
EnergyInflow  : 1897.8399 [W]
EnergyOutflow : 1900.3545 [W]
rho max/avg/min : 1.205018 1.1818655 1.1220348
T   max/avg/min : 314.4842 298.69439 292.87792
P   max/avg/min : 101324.9 101316.15 101307.4
Prg max/avg/min : 101324.99 101324.83 101323.83
U   max/avg/min : 0.43531538 0.17959466 0
Prg max-min : 1.1618776
 
Iteration Number = 1987

DILUPBiCG:  Solving for Ux, Initial residual = 0.034554456, Final residual = 5.1255475e-07, No Iterations 3
DILUPBiCG:  Solving for Uz, Initial residual = 0.00019128203, Final residual = 4.4003942e-09, No Iterations 3
DILUPBiCG:  Solving for h, Initial residual = 4.5691834e-06, Final residual = 2.2097511e-10, No Iterations 11
DICPCG:  Solving for p_rgh, Initial residual = 0.0085042759, Final residual = 6.8156508e-07, No Iterations 100
time step continuity errors : sum local = 1.8599935e-06, global = 9.2709342e-09, cumulative = -1.0454808e-05
ExecutionTime = 1440.08 s  ClockTime = 1441 s
Inflow      : 0.006424395 [kg/s]
Outflow     : 0.0064243956 [kg/s]
EnergyInflow  : 1898.1659 [W]
EnergyOutflow : 1900.68 [W]
rho max/avg/min : 1.2050188 1.1818657 1.1220349
T   max/avg/min : 314.48417 298.69434 292.87772
P   max/avg/min : 101324.9 101316.15 101307.4
Prg max/avg/min : 101324.99 101324.83 101323.83
U   max/avg/min : 0.43531843 0.1796069 0
Prg max-min : 1.1619354
 
Iteration Number = 1988

DILUPBiCG:  Solving for Ux, Initial residual = 0.034520931, Final residual = 5.12729e-07, No Iterations 3
DILUPBiCG:  Solving for Uz, Initial residual = 0.0001847658, Final residual = 4.3233271e-09, No Iterations 3
DILUPBiCG:  Solving for h, Initial residual = 4.572445e-06, Final residual = 1.4914731e-10, No Iterations 11
DICPCG:  Solving for p_rgh, Initial residual = 0.0085017979, Final residual = 8.0346807e-07, No Iterations 98
time step continuity errors : sum local = 2.1898916e-06, global = 2.1579166e-08, cumulative = -1.0433229e-05
ExecutionTime = 1440.69 s  ClockTime = 1442 s
Inflow      : 0.0064255104 [kg/s]
Outflow     : 0.0064255117 [kg/s]
EnergyInflow  : 1898.4954 [W]
EnergyOutflow : 1901.0098 [W]
rho max/avg/min : 1.2050197 1.1818659 1.122035
T   max/avg/min : 314.48413 298.69429 292.87751
P   max/avg/min : 101324.9 101316.15 101307.4
Prg max/avg/min : 101324.99 101324.83 101323.83
U   max/avg/min : 0.43532126 0.17961925 0
Prg max-min : 1.1619039
 
Iteration Number = 1989

DILUPBiCG:  Solving for Ux, Initial residual = 0.034507192, Final residual = 5.1336745e-07, No Iterations 3
DILUPBiCG:  Solving for Uz, Initial residual = 0.00019355611, Final residual = 4.386024e-09, No Iterations 3
DILUPBiCG:  Solving for h, Initial residual = 4.5799214e-06, Final residual = 1.2972896e-10, No Iterations 11
DICPCG:  Solving for p_rgh, Initial residual = 0.0084997125, Final residual = 8.0057108e-07, No Iterations 97
time step continuity errors : sum local = 2.1824765e-06, global = 1.5328199e-08, cumulative = -1.0417901e-05
ExecutionTime = 1441.34 s  ClockTime = 1442 s
Inflow      : 0.0064266223 [kg/s]
Outflow     : 0.0064266232 [kg/s]
EnergyInflow  : 1898.824 [W]
EnergyOutflow : 1901.3382 [W]
rho max/avg/min : 1.2050205 1.1818661 1.1220351
T   max/avg/min : 314.4841 298.69423 292.87731
P   max/avg/min : 101324.9 101316.15 101307.4
Prg max/avg/min : 101324.99 101324.83 101323.83
U   max/avg/min : 0.43532432 0.17963157 0
Prg max-min : 1.1619189
 
Iteration Number = 1990

DILUPBiCG:  Solving for Ux, Initial residual = 0.034534589, Final residual = 5.1728739e-07, No Iterations 3
DILUPBiCG:  Solving for Uz, Initial residual = 0.00018424102, Final residual = 4.0422995e-09, No Iterations 3
DILUPBiCG:  Solving for h, Initial residual = 4.5888137e-06, Final residual = 6.9645949e-10, No Iterations 10
DICPCG:  Solving for p_rgh, Initial residual = 0.0084986318, Final residual = 7.2728181e-07, No Iterations 97
time step continuity errors : sum local = 1.9826078e-06, global = 5.4007741e-08, cumulative = -1.0363893e-05
ExecutionTime = 1442.06 s  ClockTime = 1443 s
Inflow      : 0.0064277193 [kg/s]
Outflow     : 0.0064277224 [kg/s]
EnergyInflow  : 1899.1481 [W]
EnergyOutflow : 1901.663 [W]
rho max/avg/min : 1.2050214 1.1818663 1.1220352
T   max/avg/min : 314.48407 298.69418 292.87709
P   max/avg/min : 101324.9 101316.15 101307.4
Prg max/avg/min : 101324.99 101324.83 101323.83
U   max/avg/min : 0.43532712 0.17964378 0
Prg max-min : 1.1618892
 
Iteration Number = 1991

DILUPBiCG:  Solving for Ux, Initial residual = 0.0344496, Final residual = 5.1460387e-07, No Iterations 3
DILUPBiCG:  Solving for Uz, Initial residual = 0.00019100473, Final residual = 4.3812205e-09, No Iterations 3
DILUPBiCG:  Solving for h, Initial residual = 4.5903071e-06, Final residual = 9.124013e-10, No Iterations 10
DICPCG:  Solving for p_rgh, Initial residual = 0.0084956376, Final residual = 8.2197728e-07, No Iterations 99
time step continuity errors : sum local = 2.240476e-06, global = -1.1393666e-09, cumulative = -1.0365033e-05
ExecutionTime = 1442.67 s  ClockTime = 1444 s
Inflow      : 0.0064288469 [kg/s]
Outflow     : 0.0064288469 [kg/s]
EnergyInflow  : 1899.4813 [W]
EnergyOutflow : 1901.9952 [W]
rho max/avg/min : 1.205022 1.1818665 1.1220353
T   max/avg/min : 314.48405 298.69413 292.87696
P   max/avg/min : 101324.9 101316.15 101307.4
Prg max/avg/min : 101324.99 101324.83 101323.83
U   max/avg/min : 0.43533019 0.1796562 0
Prg max-min : 1.1619511
 
Iteration Number = 1992

DILUPBiCG:  Solving for Ux, Initial residual = 0.034445502, Final residual = 5.1472067e-07, No Iterations 3
DILUPBiCG:  Solving for Uz, Initial residual = 0.00018852023, Final residual = 3.6264975e-09, No Iterations 3
DILUPBiCG:  Solving for h, Initial residual = 4.5059044e-06, Final residual = 4.6918747e-10, No Iterations 11
DICPCG:  Solving for p_rgh, Initial residual = 0.0085007498, Final residual = 8.0896999e-07, No Iterations 98
time step continuity errors : sum local = 2.2048785e-06, global = 2.2359285e-08, cumulative = -1.0342673e-05
ExecutionTime = 1443.33 s  ClockTime = 1444 s
Inflow      : 0.0064299383 [kg/s]
Outflow     : 0.0064299396 [kg/s]
EnergyInflow  : 1899.8037 [W]
EnergyOutflow : 1902.318 [W]
rho max/avg/min : 1.2050227 1.1818667 1.1220354
T   max/avg/min : 314.48402 298.69408 292.87679
P   max/avg/min : 101324.9 101316.15 101307.4
Prg max/avg/min : 101324.99 101324.83 101323.83
U   max/avg/min : 0.43533297 0.17966836 0
Prg max-min : 1.1618369
 
Iteration Number = 1993

DILUPBiCG:  Solving for Ux, Initial residual = 0.034410567, Final residual = 5.1203322e-07, No Iterations 3
DILUPBiCG:  Solving for Uz, Initial residual = 0.00018535586, Final residual = 4.4295772e-09, No Iterations 3
DILUPBiCG:  Solving for h, Initial residual = 4.5173432e-06, Final residual = 3.5977878e-10, No Iterations 11
DICPCG:  Solving for p_rgh, Initial residual = 0.0085129103, Final residual = 8.2722668e-07, No Iterations 99
time step continuity errors : sum local = 2.2538119e-06, global = -9.4401634e-09, cumulative = -1.0352113e-05
ExecutionTime = 1443.94 s  ClockTime = 1445 s
Inflow      : 0.0064310597 [kg/s]
Outflow     : 0.0064310591 [kg/s]
EnergyInflow  : 1900.135 [W]
EnergyOutflow : 1902.6488 [W]
rho max/avg/min : 1.2050234 1.1818669 1.1220355
T   max/avg/min : 314.48399 298.69403 292.87661
P   max/avg/min : 101324.9 101316.15 101307.4
Prg max/avg/min : 101324.99 101324.83 101323.83
U   max/avg/min : 0.43533607 0.17968074 0
Prg max-min : 1.1619991
 
Iteration Number = 1994

DILUPBiCG:  Solving for Ux, Initial residual = 0.034443443, Final residual = 5.11619e-07, No Iterations 3
DILUPBiCG:  Solving for Uz, Initial residual = 0.00019327744, Final residual = 3.7283016e-09, No Iterations 3
DILUPBiCG:  Solving for h, Initial residual = 4.5232097e-06, Final residual = 2.173319e-10, No Iterations 11
DICPCG:  Solving for p_rgh, Initial residual = 0.0085036023, Final residual = 8.291083e-07, No Iterations 98
time step continuity errors : sum local = 2.2565697e-06, global = -6.4494873e-09, cumulative = -1.0358563e-05
ExecutionTime = 1444.6 s  ClockTime = 1446 s
Inflow      : 0.0064321624 [kg/s]
Outflow     : 0.006432162 [kg/s]
EnergyInflow  : 1900.4609 [W]
EnergyOutflow : 1902.9747 [W]
rho max/avg/min : 1.2050242 1.1818671 1.1220356
T   max/avg/min : 314.48396 298.69398 292.87642
P   max/avg/min : 101324.9 101316.15 101307.4
Prg max/avg/min : 101324.99 101324.83 101323.83
U   max/avg/min : 0.43533878 0.17969298 0
Prg max-min : 1.1617965
 
Iteration Number = 1995

DILUPBiCG:  Solving for Ux, Initial residual = 0.03440974, Final residual = 5.1112963e-07, No Iterations 3
DILUPBiCG:  Solving for Uz, Initial residual = 0.00018224431, Final residual = 4.3447829e-09, No Iterations 3
DILUPBiCG:  Solving for h, Initial residual = 4.5309985e-06, Final residual = 1.4636808e-10, No Iterations 11
DICPCG:  Solving for p_rgh, Initial residual = 0.0084969739, Final residual = 6.6939814e-07, No Iterations 100
time step continuity errors : sum local = 1.8265991e-06, global = 7.0584928e-09, cumulative = -1.0351504e-05
ExecutionTime = 1445.21 s  ClockTime = 1446 s
Inflow      : 0.0064332628 [kg/s]
Outflow     : 0.0064332632 [kg/s]
EnergyInflow  : 1900.786 [W]
EnergyOutflow : 1903.3 [W]
rho max/avg/min : 1.205025 1.1818673 1.1220357
T   max/avg/min : 314.48393 298.69392 292.87623
P   max/avg/min : 101324.9 101316.15 101307.4
Prg max/avg/min : 101324.99 101324.83 101323.83
U   max/avg/min : 0.43534187 0.17970521 0
Prg max-min : 1.1620084
 
Iteration Number = 1996

DILUPBiCG:  Solving for Ux, Initial residual = 0.034394362, Final residual = 5.1456435e-07, No Iterations 3
DILUPBiCG:  Solving for Uz, Initial residual = 0.0001927211, Final residual = 3.9345974e-09, No Iterations 3
DILUPBiCG:  Solving for h, Initial residual = 4.5366752e-06, Final residual = 1.8694432e-10, No Iterations 11
DICPCG:  Solving for p_rgh, Initial residual = 0.0084992039, Final residual = 7.4922764e-07, No Iterations 70
time step continuity errors : sum local = 2.0400558e-06, global = -3.9879844e-07, cumulative = -1.0750303e-05
ExecutionTime = 1445.79 s  ClockTime = 1447 s
Inflow      : 0.0064344051 [kg/s]
Outflow     : 0.0064343816 [kg/s]
EnergyInflow  : 1901.1235 [W]
EnergyOutflow : 1903.6305 [W]
rho max/avg/min : 1.2050258 1.1818675 1.1220358
T   max/avg/min : 314.4839 298.69387 292.87603
P   max/avg/min : 101324.9 101316.15 101307.4
Prg max/avg/min : 101324.99 101324.83 101323.83
U   max/avg/min : 0.43534463 0.17971769 0
Prg max-min : 1.1618191
 
Iteration Number = 1997

DILUPBiCG:  Solving for Ux, Initial residual = 0.034344935, Final residual = 5.1092691e-07, No Iterations 3
DILUPBiCG:  Solving for Uz, Initial residual = 0.00018830791, Final residual = 4.418154e-09, No Iterations 3
DILUPBiCG:  Solving for h, Initial residual = 4.5607265e-06, Final residual = 1.5425476e-10, No Iterations 11
DICPCG:  Solving for p_rgh, Initial residual = 0.0084967521, Final residual = 6.4452893e-07, No Iterations 100
time step continuity errors : sum local = 1.7581669e-06, global = 8.4855893e-09, cumulative = -1.0741817e-05
ExecutionTime = 1446.41 s  ClockTime = 1448 s
Inflow      : 0.0064354752 [kg/s]
Outflow     : 0.0064354757 [kg/s]
EnergyInflow  : 1901.4397 [W]
EnergyOutflow : 1903.9537 [W]
rho max/avg/min : 1.2050266 1.1818677 1.122036
T   max/avg/min : 314.48387 298.69382 292.87583
P   max/avg/min : 101324.9 101316.15 101307.4
Prg max/avg/min : 101324.99 101324.83 101323.83
U   max/avg/min : 0.43534765 0.17972974 0
Prg max-min : 1.161956
 
Iteration Number = 1998

DILUPBiCG:  Solving for Ux, Initial residual = 0.034370257, Final residual = 5.1236365e-07, No Iterations 3
DILUPBiCG:  Solving for Uz, Initial residual = 0.00018254094, Final residual = 4.1971325e-09, No Iterations 3
DILUPBiCG:  Solving for h, Initial residual = 4.5558249e-06, Final residual = 2.3806763e-10, No Iterations 11
DICPCG:  Solving for p_rgh, Initial residual = 0.0084986048, Final residual = 8.3553134e-07, No Iterations 95
time step continuity errors : sum local = 2.2735753e-06, global = 1.1453802e-08, cumulative = -1.0730363e-05
ExecutionTime = 1447.05 s  ClockTime = 1448 s
Inflow      : 0.0064365869 [kg/s]
Outflow     : 0.0064365876 [kg/s]
EnergyInflow  : 1901.7681 [W]
EnergyOutflow : 1904.2822 [W]
rho max/avg/min : 1.2050275 1.1818679 1.1220361
T   max/avg/min : 314.48384 298.69377 292.87562
P   max/avg/min : 101324.9 101316.15 101307.4
Prg max/avg/min : 101324.99 101324.83 101323.83
U   max/avg/min : 0.43535041 0.17974205 0
Prg max-min : 1.1618404
 
Iteration Number = 1999

DILUPBiCG:  Solving for Ux, Initial residual = 0.034347961, Final residual = 5.1334907e-07, No Iterations 3
DILUPBiCG:  Solving for Uz, Initial residual = 0.00019457739, Final residual = 4.4751397e-09, No Iterations 3
DILUPBiCG:  Solving for h, Initial residual = 4.57172e-06, Final residual = 3.8846854e-10, No Iterations 11
DICPCG:  Solving for p_rgh, Initial residual = 0.0084981227, Final residual = 8.0961289e-07, No Iterations 99
time step continuity errors : sum local = 2.2050053e-06, global = -7.5822356e-09, cumulative = -1.0737946e-05
ExecutionTime = 1447.66 s  ClockTime = 1449 s
Inflow      : 0.0064376918 [kg/s]
Outflow     : 0.0064376914 [kg/s]
EnergyInflow  : 1902.0946 [W]
EnergyOutflow : 1904.6084 [W]
rho max/avg/min : 1.2050283 1.1818681 1.1220362
T   max/avg/min : 314.48381 298.69372 292.87542
P   max/avg/min : 101324.9 101316.15 101307.4
Prg max/avg/min : 101324.99 101324.83 101323.83
U   max/avg/min : 0.43535342 0.17975429 0
Prg max-min : 1.1619651
 
Iteration Number = 2000

DILUPBiCG:  Solving for Ux, Initial residual = 0.034378516, Final residual = 5.1313943e-07, No Iterations 3
DILUPBiCG:  Solving for Uz, Initial residual = 0.00018151101, Final residual = 3.9755349e-09, No Iterations 3
DILUPBiCG:  Solving for h, Initial residual = 4.5750693e-06, Final residual = 7.2934011e-10, No Iterations 10
DICPCG:  Solving for p_rgh, Initial residual = 0.008505931, Final residual = 7.3835047e-07, No Iterations 98
time step continuity errors : sum local = 2.0110194e-06, global = 5.943904e-09, cumulative = -1.0732002e-05
ExecutionTime = 1449.31 s  ClockTime = 1450 s
Inflow      : 0.0064387876 [kg/s]
Outflow     : 0.006438788 [kg/s]
EnergyInflow  : 1902.4184 [W]
EnergyOutflow : 1904.9324 [W]
rho max/avg/min : 1.2050292 1.1818684 1.1220363
T   max/avg/min : 314.48378 298.69366 292.87521
P   max/avg/min : 101324.9 101316.15 101307.4
Prg max/avg/min : 101324.99 101324.83 101323.83
U   max/avg/min : 0.43535618 0.17976647 0
Prg max-min : 1.1617949
 
End

