/*---------------------------------------------------------------------------*\
| =========                 |                                                 |
| \\      /  F ield         | OpenFOAM: The Open Source CFD Toolbox           |
|  \\    /   O peration     | Version:  4.0                                   |
|   \\  /    A nd           | Web:      www.OpenFOAM.org                      |
|    \\/     M anipulation  |                                                 |
\*---------------------------------------------------------------------------*/
Build  : 4.0-665f1db4c1f1
Exec   : pupoBuoyantSimpleFoam
Date   : Sep 16 2016
Time   : 16:54:44
Host   : "SC500"
PID    : 7618
Case   : /home/pedro/Documents/ThesisProject/OpenFoam/validation1rod/NoRad
nProcs : 1
sigFpe : Enabling floating point exception trapping (FOAM_SIGFPE).
fileModificationChecking : Monitoring run-time modified files using timeStampMaster
allowSystemOperations : Allowing user-supplied system call operations

// * * * * * * * * * * * * * * * * * * * * * * * * * * * * * * * * * * * * * //
Create time

Create mesh for time = 0


SIMPLE: convergence criteria
    field p_rgh	 tolerance 1e-06
    field Uz	 tolerance 1e-06
    field h	 tolerance 1e-06

Reading thermophysical properties

Selecting thermodynamics package 
{
    type            heRhoThermo;
    mixture         pureMixture;
    transport       sutherland;
    thermo          hConst;
    equationOfState perfectGas;
    specie          specie;
    energy          sensibleEnthalpy;
}


Reading g

Reading hRef
Calculating field g.h

Selecting turbulence model type laminar
No MRF models present

Selecting radiationModel none
 
rho max/avg/min : 1.2016452 1.2015414 1.2014377
T   max/avg/min : 293.7 293.7 293.7
P   max/avg/min : 101324.91 101316.16 101307.41
Prg max/avg/min : 101325 101325 101325
U   max/avg/min : 0 0 0
 
No finite volume options present


Starting Iteration loop

Iteration Number = 1

DILUPBiCG:  Solving for Ux, Initial residual = 0.009764874, Final residual = 1.4535255e-06, No Iterations 2
DILUPBiCG:  Solving for Uy, Initial residual = 4.8698736e-07, Final residual = 4.8698736e-07, No Iterations 0
DILUPBiCG:  Solving for Uz, Initial residual = 1, Final residual = 0.00034288199, No Iterations 2
DILUPBiCG:  Solving for h, Initial residual = 1, Final residual = 0.00045981981, No Iterations 1
GAMG:  Solving for p_rgh, Initial residual = 0.56853703, Final residual = 0.00047658333, No Iterations 3
time step continuity errors : sum local = 6.12717e-05, global = -2.6411481e-05, cumulative = -2.6411481e-05
ExecutionTime = 0.09 s  ClockTime = 0 s
Inflow      : -2.3325967e-07 [kg/s]
Outflow     : -2.5528683e-07 [kg/s]
EnergyInflow  : -0.068919416 [W]
EnergyOutflow : -0.075427609 [W]
EnergyBalance : -0.006508193 [W]
rho max/avg/min : 1.2016452 1.2001092 1.1762176
T   max/avg/min : 299.99741 294.05464 293.7
P   max/avg/min : 101324.91 101316.16 101307.41
Prg max/avg/min : 101325 101324.99 101324.63
U   max/avg/min : 2.3652753e-05 -8.5287662e-05 -0.00085197431
Prg max-min : 0.36989795
 
Iteration Number = 2

DILUPBiCG:  Solving for Ux, Initial residual = 0.3474512, Final residual = 0.00010406686, No Iterations 2
DILUPBiCG:  Solving for Uy, Initial residual = 8.7928271e-05, Final residual = 2.221148e-08, No Iterations 2
DILUPBiCG:  Solving for Uz, Initial residual = 0.37799507, Final residual = 3.5668663e-05, No Iterations 2
DILUPBiCG:  Solving for h, Initial residual = 0.25342429, Final residual = 6.8941312e-05, No Iterations 1
GAMG:  Solving for p_rgh, Initial residual = 0.029247091, Final residual = 7.3678339e-06, No Iterations 5
time step continuity errors : sum local = 9.4183061e-06, global = 4.1019714e-06, cumulative = -2.230951e-05
ExecutionTime = 0.12 s  ClockTime = 0 s
Inflow      : -3.4704426e-07 [kg/s]
Outflow     : -3.4362321e-07 [kg/s]
EnergyInflow  : -0.10253846 [W]
EnergyOutflow : -0.10152767 [W]
EnergyBalance : 0.0010107885 [W]
rho max/avg/min : 1.2016452 1.1987637 1.1631289
T   max/avg/min : 303.37381 294.39234 293.70001
P   max/avg/min : 101324.91 101316.16 101307.41
Prg max/avg/min : 101325 101324.98 101324.44
U   max/avg/min : 7.6221529e-05 -0.00012547951 -0.00083971854
Prg max-min : 0.56259207
 
Iteration Number = 3

DILUPBiCG:  Solving for Ux, Initial residual = 0.5345261, Final residual = 0.00020980335, No Iterations 2
DILUPBiCG:  Solving for Uy, Initial residual = 0.00010860885, Final residual = 3.6734031e-08, No Iterations 2
DILUPBiCG:  Solving for Uz, Initial residual = 0.17733129, Final residual = 1.8587925e-05, No Iterations 2
DILUPBiCG:  Solving for h, Initial residual = 0.15683145, Final residual = 4.8622545e-05, No Iterations 1
GAMG:  Solving for p_rgh, Initial residual = 0.012901438, Final residual = 5.6936015e-06, No Iterations 3
time step continuity errors : sum local = 1.3550754e-05, global = -1.9206436e-06, cumulative = -2.4230153e-05
ExecutionTime = 0.16 s  ClockTime = 0 s
Inflow      : -2.6141702e-07 [kg/s]
Outflow     : -2.6301884e-07 [kg/s]
EnergyInflow  : -0.077238848 [W]
EnergyOutflow : -0.077712071 [W]
EnergyBalance : -0.00047322304 [W]
rho max/avg/min : 1.2016452 1.197476 1.1543176
T   max/avg/min : 305.68958 294.71785 293.70001
P   max/avg/min : 101324.91 101316.16 101307.41
Prg max/avg/min : 101325 101324.97 101324.31
U   max/avg/min : 0.00015111919 -8.0805792e-05 -0.00065355043
Prg max-min : 0.69139837
 
Iteration Number = 4

DILUPBiCG:  Solving for Ux, Initial residual = 0.45343487, Final residual = 0.00016151678, No Iterations 2
DILUPBiCG:  Solving for Uy, Initial residual = 7.0644485e-05, Final residual = 9.9929707e-07, No Iterations 1
DILUPBiCG:  Solving for Uz, Initial residual = 0.11228906, Final residual = 4.9044013e-06, No Iterations 2
DILUPBiCG:  Solving for h, Initial residual = 0.11361714, Final residual = 4.4813727e-05, No Iterations 1
GAMG:  Solving for p_rgh, Initial residual = 0.0083417627, Final residual = 2.9641597e-06, No Iterations 3
time step continuity errors : sum local = 9.9150955e-06, global = -1.5179481e-06, cumulative = -2.5748101e-05
ExecutionTime = 0.2 s  ClockTime = 0 s
Inflow      : -2.0284861e-07 [kg/s]
Outflow     : -2.0411458e-07 [kg/s]
EnergyInflow  : -0.059934098 [W]
EnergyOutflow : -0.060307981 [W]
EnergyBalance : -0.00037388353 [W]
rho max/avg/min : 1.2016451 1.1962057 1.1471621
T   max/avg/min : 307.59633 295.04079 293.70002
P   max/avg/min : 101324.91 101316.16 101307.41
Prg max/avg/min : 101325 101324.96 101324.2
U   max/avg/min : 0.00024983988 -3.8217474e-05 -0.00050807684
Prg max-min : 0.79630339
 
Iteration Number = 5

DILUPBiCG:  Solving for Ux, Initial residual = 0.49763319, Final residual = 0.00017771824, No Iterations 2
DILUPBiCG:  Solving for Uy, Initial residual = 5.214931e-05, Final residual = 7.3320904e-07, No Iterations 1
DILUPBiCG:  Solving for Uz, Initial residual = 0.17932783, Final residual = 7.5479561e-06, No Iterations 2
DILUPBiCG:  Solving for h, Initial residual = 0.089912648, Final residual = 4.5881323e-05, No Iterations 1
GAMG:  Solving for p_rgh, Initial residual = 0.0060478922, Final residual = 3.0152319e-06, No Iterations 3
time step continuity errors : sum local = 1.2978928e-05, global = -4.2822347e-06, cumulative = -3.0030336e-05
ExecutionTime = 0.23 s  ClockTime = 0 s
Inflow      : -1.5827546e-07 [kg/s]
Outflow     : -1.6184684e-07 [kg/s]
EnergyInflow  : -0.046764416 [W]
EnergyOutflow : -0.047819249 [W]
EnergyBalance : -0.0010548329 [W]
rho max/avg/min : 1.2016451 1.1949431 1.1409804
T   max/avg/min : 309.26262 295.36338 293.70003
P   max/avg/min : 101324.91 101316.16 101307.41
Prg max/avg/min : 101325 101324.95 101324.11
U   max/avg/min : 0.00037167453 1.5412813e-05 -0.00041418298
Prg max-min : 0.88672548
 
Iteration Number = 6

DILUPBiCG:  Solving for Ux, Initial residual = 0.38400831, Final residual = 0.00012410501, No Iterations 2
DILUPBiCG:  Solving for Uy, Initial residual = 5.2404063e-05, Final residual = 6.4436686e-07, No Iterations 1
DILUPBiCG:  Solving for Uz, Initial residual = 0.15844054, Final residual = 2.3234916e-06, No Iterations 2
DILUPBiCG:  Solving for h, Initial residual = 0.074756881, Final residual = 4.8861511e-05, No Iterations 1
GAMG:  Solving for p_rgh, Initial residual = 0.0043276086, Final residual = 3.8466422e-06, No Iterations 3
time step continuity errors : sum local = 2.0067268e-05, global = 1.1233829e-05, cumulative = -1.8796507e-05
ExecutionTime = 0.27 s  ClockTime = 0 s
Inflow      : -1.3948476e-07 [kg/s]
Outflow     : -1.3011576e-07 [kg/s]
EnergyInflow  : -0.041212475 [W]
EnergyOutflow : -0.038443541 [W]
EnergyBalance : 0.0027689339 [W]
rho max/avg/min : 1.2016451 1.1936857 1.1354886
T   max/avg/min : 310.75807 295.68604 293.70003
P   max/avg/min : 101324.91 101316.16 101307.41
Prg max/avg/min : 101325 101324.94 101324.03
U   max/avg/min : 0.00051708531 7.6534319e-05 -0.00035447406
Prg max-min : 0.96712275
 
Iteration Number = 7

DILUPBiCG:  Solving for Ux, Initial residual = 0.33269084, Final residual = 0.00010980152, No Iterations 2
DILUPBiCG:  Solving for Uy, Initial residual = 4.8408825e-05, Final residual = 5.6674836e-07, No Iterations 1
DILUPBiCG:  Solving for Uz, Initial residual = 0.16092298, Final residual = 2.1462644e-06, No Iterations 2
DILUPBiCG:  Solving for h, Initial residual = 0.064175409, Final residual = 5.3311532e-05, No Iterations 1
GAMG:  Solving for p_rgh, Initial residual = 0.0037697057, Final residual = 1.4544722e-06, No Iterations 4
time step continuity errors : sum local = 8.9798965e-06, global = 3.0252516e-06, cumulative = -1.5771255e-05
ExecutionTime = 0.31 s  ClockTime = 0 s
Inflow      : -1.0843674e-07 [kg/s]
Outflow     : -1.0591369e-07 [kg/s]
EnergyInflow  : -0.032038959 [W]
EnergyOutflow : -0.031292139 [W]
EnergyBalance : 0.00074681979 [W]
rho max/avg/min : 1.2016451 1.1924327 1.1305204
T   max/avg/min : 312.12372 296.00886 293.70003
P   max/avg/min : 101324.91 101316.16 101307.41
Prg max/avg/min : 101325 101324.93 101323.96
U   max/avg/min : 0.00069175635 0.00015724507 -0.00029732517
Prg max-min : 1.0398636
 
Iteration Number = 8

DILUPBiCG:  Solving for Ux, Initial residual = 0.30102225, Final residual = 9.0314567e-05, No Iterations 2
DILUPBiCG:  Solving for Uy, Initial residual = 5.4426517e-05, Final residual = 5.4691535e-07, No Iterations 1
DILUPBiCG:  Solving for Uz, Initial residual = 0.16697401, Final residual = 2.6478596e-06, No Iterations 2
DILUPBiCG:  Solving for h, Initial residual = 0.05636806, Final residual = 3.6111129e-06, No Iterations 2
GAMG:  Solving for p_rgh, Initial residual = 0.0038151178, Final residual = 1.5067211e-06, No Iterations 4
time step continuity errors : sum local = 1.0788978e-05, global = 6.1796235e-06, cumulative = -9.5916318e-06
ExecutionTime = 0.34 s  ClockTime = 0 s
Inflow      : -9.2812123e-08 [kg/s]
Outflow     : -8.765832e-08 [kg/s]
EnergyInflow  : -0.027422474 [W]
EnergyOutflow : -0.02589743 [W]
EnergyBalance : 0.0015250441 [W]
rho max/avg/min : 1.2016451 1.1911823 1.1259682
T   max/avg/min : 313.38561 296.33217 293.70002
P   max/avg/min : 101324.91 101316.16 101307.41
Prg max/avg/min : 101325 101324.92 101323.89
U   max/avg/min : 0.00089424964 0.00025891164 -0.00026477058
Prg max-min : 1.1064622
 
Iteration Number = 9

DILUPBiCG:  Solving for Ux, Initial residual = 0.26749932, Final residual = 6.7631169e-05, No Iterations 2
DILUPBiCG:  Solving for Uy, Initial residual = 5.2567594e-05, Final residual = 3.9586468e-07, No Iterations 1
DILUPBiCG:  Solving for Uz, Initial residual = 0.15915321, Final residual = 2.5593369e-06, No Iterations 2
DILUPBiCG:  Solving for h, Initial residual = 0.050366889, Final residual = 3.2092905e-06, No Iterations 2
GAMG:  Solving for p_rgh, Initial residual = 0.0035510612, Final residual = 1.027017e-06, No Iterations 4
time step continuity errors : sum local = 8.3473231e-06, global = 6.3539238e-07, cumulative = -8.9562395e-06
ExecutionTime = 0.37 s  ClockTime = 1 s
Inflow      : -7.4178956e-08 [kg/s]
Outflow     : -7.3649039e-08 [kg/s]
EnergyInflow  : -0.021917077 [W]
EnergyOutflow : -0.021756806 [W]
EnergyBalance : 0.00016027188 [W]
rho max/avg/min : 1.2016451 1.1899355 1.1217542
T   max/avg/min : 314.56289 296.65562 293.70003
P   max/avg/min : 101324.91 101316.16 101307.41
Prg max/avg/min : 101325 101324.91 101323.83
U   max/avg/min : 0.0011315852 0.00038735835 -0.00024126682
Prg max-min : 1.1681533
 
Iteration Number = 10

DILUPBiCG:  Solving for Ux, Initial residual = 0.21736852, Final residual = 4.9577271e-05, No Iterations 2
DILUPBiCG:  Solving for Uy, Initial residual = 6.9203818e-05, Final residual = 4.1937731e-07, No Iterations 1
DILUPBiCG:  Solving for Uz, Initial residual = 0.15661853, Final residual = 3.135728e-06, No Iterations 2
DILUPBiCG:  Solving for h, Initial residual = 0.045573707, Final residual = 4.4479374e-06, No Iterations 2
GAMG:  Solving for p_rgh, Initial residual = 0.0035312938, Final residual = 2.4142581e-06, No Iterations 4
time step continuity errors : sum local = 2.1934154e-05, global = 1.1797666e-05, cumulative = 2.8414269e-06
ExecutionTime = 0.41 s  ClockTime = 1 s
Inflow      : -7.2923259e-08 [kg/s]
Outflow     : -6.3084012e-08 [kg/s]
EnergyInflow  : -0.021546066 [W]
EnergyOutflow : -0.018633169 [W]
EnergyBalance : 0.0029128974 [W]
rho max/avg/min : 1.2016451 1.1886924 1.117823
T   max/avg/min : 315.66916 296.97912 293.70003
P   max/avg/min : 101324.91 101316.16 101307.41
Prg max/avg/min : 101325 101324.9 101323.77
U   max/avg/min : 0.0014112102 0.00054714808 -0.00023785574
Prg max-min : 1.2256425
 
Iteration Number = 11

DILUPBiCG:  Solving for Ux, Initial residual = 0.19526738, Final residual = 3.8005415e-05, No Iterations 2
DILUPBiCG:  Solving for Uy, Initial residual = 8.5783303e-05, Final residual = 3.8747169e-07, No Iterations 1
DILUPBiCG:  Solving for Uz, Initial residual = 0.15210339, Final residual = 3.4967688e-06, No Iterations 2
DILUPBiCG:  Solving for h, Initial residual = 0.041684562, Final residual = 3.3120385e-06, No Iterations 2
GAMG:  Solving for p_rgh, Initial residual = 0.0034091219, Final residual = 8.2232724e-07, No Iterations 4
time step continuity errors : sum local = 8.2602585e-06, global = -1.1623528e-06, cumulative = 1.6790742e-06
ExecutionTime = 0.45 s  ClockTime = 1 s
Inflow      : -5.4283548e-08 [kg/s]
Outflow     : -5.5252949e-08 [kg/s]
EnergyInflow  : -0.016038736 [W]
EnergyOutflow : -0.016316405 [W]
EnergyBalance : -0.000277669 [W]
rho max/avg/min : 1.201645 1.1874531 1.1141333
T   max/avg/min : 316.71456 297.30262 293.70005
P   max/avg/min : 101324.91 101316.16 101307.41
Prg max/avg/min : 101325 101324.9 101323.72
U   max/avg/min : 0.0017413011 0.00074691922 -0.00023243665
Prg max-min : 1.2796582
 
Iteration Number = 12

DILUPBiCG:  Solving for Ux, Initial residual = 0.17136941, Final residual = 3.0430345e-05, No Iterations 2
DILUPBiCG:  Solving for Uy, Initial residual = 0.00010998568, Final residual = 3.547431e-07, No Iterations 1
DILUPBiCG:  Solving for Uz, Initial residual = 0.15178971, Final residual = 4.2361981e-06, No Iterations 2
DILUPBiCG:  Solving for h, Initial residual = 0.03844102, Final residual = 5.4148224e-06, No Iterations 2
GAMG:  Solving for p_rgh, Initial residual = 0.0035538913, Final residual = 2.4719899e-06, No Iterations 4
time step continuity errors : sum local = 2.7236841e-05, global = 1.7010785e-05, cumulative = 1.8689859e-05
ExecutionTime = 0.48 s  ClockTime = 1 s
Inflow      : -6.4477915e-08 [kg/s]
Outflow     : -5.029093e-08 [kg/s]
EnergyInflow  : -0.019050786 [W]
EnergyOutflow : -0.014846083 [W]
EnergyBalance : 0.0042047032 [W]
rho max/avg/min : 1.2016449 1.186218 1.1106527
T   max/avg/min : 317.7071 297.62594 293.70007
P   max/avg/min : 101324.91 101316.16 101307.41
Prg max/avg/min : 101325 101324.89 101323.67
U   max/avg/min : 0.0021309253 0.00098840001 -0.00027015903
Prg max-min : 1.3304841
 
Iteration Number = 13

DILUPBiCG:  Solving for Ux, Initial residual = 0.16472557, Final residual = 2.8897663e-05, No Iterations 2
DILUPBiCG:  Solving for Uy, Initial residual = 0.00015558243, Final residual = 5.3394325e-07, No Iterations 1
DILUPBiCG:  Solving for Uz, Initial residual = 0.14910986, Final residual = 5.3376827e-06, No Iterations 2
DILUPBiCG:  Solving for h, Initial residual = 0.03568868, Final residual = 6.2562732e-06, No Iterations 2
GAMG:  Solving for p_rgh, Initial residual = 0.0035114644, Final residual = 1.2296664e-06, No Iterations 4
time step continuity errors : sum local = 1.4711963e-05, global = -1.4374096e-06, cumulative = 1.725245e-05
ExecutionTime = 0.52 s  ClockTime = 1 s
Inflow      : -4.7612373e-08 [kg/s]
Outflow     : -4.8811171e-08 [kg/s]
EnergyInflow  : -0.014067656 [W]
EnergyOutflow : -0.014402939 [W]
EnergyBalance : -0.00033528264 [W]
rho max/avg/min : 1.2016447 1.1849868 1.1073558
T   max/avg/min : 318.65298 297.94909 293.70012
P   max/avg/min : 101324.91 101316.16 101307.41
Prg max/avg/min : 101325 101324.88 101323.62
U   max/avg/min : 0.0025984757 0.0012848291 -0.00032398886
Prg max-min : 1.3787648
 
Iteration Number = 14

DILUPBiCG:  Solving for Ux, Initial residual = 0.15382131, Final residual = 2.7823676e-05, No Iterations 2
DILUPBiCG:  Solving for Uy, Initial residual = 0.0001967766, Final residual = 6.9044947e-07, No Iterations 1
DILUPBiCG:  Solving for Uz, Initial residual = 0.14877276, Final residual = 5.0552197e-06, No Iterations 2
DILUPBiCG:  Solving for h, Initial residual = 0.033342353, Final residual = 8.303869e-06, No Iterations 2
GAMG:  Solving for p_rgh, Initial residual = 0.0038366775, Final residual = 8.0648707e-07, No Iterations 5
time step continuity errors : sum local = 1.0442292e-05, global = 5.0670149e-06, cumulative = 2.2319465e-05
ExecutionTime = 0.56 s  ClockTime = 1 s
Inflow      : -5.504705e-08 [kg/s]
Outflow     : -5.0821162e-08 [kg/s]
EnergyInflow  : -0.016264322 [W]
EnergyOutflow : -0.014988556 [W]
EnergyBalance : 0.0012757666 [W]
rho max/avg/min : 1.2016444 1.1837605 1.1042216
T   max/avg/min : 319.55746 298.27181 293.70018
P   max/avg/min : 101324.91 101316.16 101307.41
Prg max/avg/min : 101325 101324.87 101323.58
U   max/avg/min : 0.0031530068 0.0016383363 -0.00044282415
Prg max-min : 1.4244509
 
Iteration Number = 15

DILUPBiCG:  Solving for Ux, Initial residual = 0.13949993, Final residual = 2.7289874e-05, No Iterations 2
DILUPBiCG:  Solving for Uy, Initial residual = 0.00028986154, Final residual = 1.7615674e-08, No Iterations 2
DILUPBiCG:  Solving for Uz, Initial residual = 0.14593326, Final residual = 7.6359916e-06, No Iterations 2
DILUPBiCG:  Solving for h, Initial residual = 0.031278453, Final residual = 9.6769934e-06, No Iterations 2
GAMG:  Solving for p_rgh, Initial residual = 0.0041046647, Final residual = 2.3493511e-06, No Iterations 4
time step continuity errors : sum local = 3.270087e-05, global = 7.4810652e-07, cumulative = 2.3067571e-05
ExecutionTime = 0.59 s  ClockTime = 1 s
Inflow      : -5.958573e-08 [kg/s]
Outflow     : -5.896181e-08 [kg/s]
EnergyInflow  : -0.017605331 [W]
EnergyOutflow : -0.017382425 [W]
EnergyBalance : 0.00022290564 [W]
rho max/avg/min : 1.2016439 1.1825388 1.1012329
T   max/avg/min : 320.42471 298.59409 293.70029
P   max/avg/min : 101324.91 101316.16 101307.41
Prg max/avg/min : 101325 101324.86 101323.53
U   max/avg/min : 0.0038142198 0.0020530561 -0.00064543935
Prg max-min : 1.4680867
 
Iteration Number = 16

DILUPBiCG:  Solving for Ux, Initial residual = 0.12890182, Final residual = 2.9458994e-05, No Iterations 2
DILUPBiCG:  Solving for Uy, Initial residual = 0.0003578, Final residual = 3.1376118e-08, No Iterations 2
DILUPBiCG:  Solving for Uz, Initial residual = 0.14201037, Final residual = 7.6123519e-06, No Iterations 2
DILUPBiCG:  Solving for h, Initial residual = 0.029463456, Final residual = 1.6829772e-05, No Iterations 2
GAMG:  Solving for p_rgh, Initial residual = 0.0042446822, Final residual = 4.0211513e-06, No Iterations 4
time step continuity errors : sum local = 5.9803277e-05, global = 3.3821982e-05, cumulative = 5.6889553e-05
ExecutionTime = 0.63 s  ClockTime = 1 s
Inflow      : -9.8244567e-08 [kg/s]
Outflow     : -7.0037055e-08 [kg/s]
EnergyInflow  : -0.029027556 [W]
EnergyOutflow : -0.020639105 [W]
EnergyBalance : 0.008388451 [W]
rho max/avg/min : 1.2016432 1.1813226 1.0983753
T   max/avg/min : 321.25835 298.91572 293.70044
P   max/avg/min : 101324.91 101316.16 101307.41
Prg max/avg/min : 101325 101324.85 101323.49
U   max/avg/min : 0.0045982614 0.0025374281 -0.0009361655
Prg max-min : 1.5097252
 
Iteration Number = 17

DILUPBiCG:  Solving for Ux, Initial residual = 0.12392404, Final residual = 3.0006778e-05, No Iterations 2
DILUPBiCG:  Solving for Uy, Initial residual = 0.00049491302, Final residual = 3.9522013e-08, No Iterations 2
DILUPBiCG:  Solving for Uz, Initial residual = 0.13815265, Final residual = 1.0267044e-05, No Iterations 2
DILUPBiCG:  Solving for h, Initial residual = 0.027853517, Final residual = 1.569111e-05, No Iterations 2
GAMG:  Solving for p_rgh, Initial residual = 0.0044869787, Final residual = 3.3475979e-06, No Iterations 4
time step continuity errors : sum local = 5.2909916e-05, global = 1.2027113e-06, cumulative = 5.8092264e-05
ExecutionTime = 0.67 s  ClockTime = 1 s
Inflow      : -9.243404e-08 [kg/s]
Outflow     : -9.143098e-08 [kg/s]
EnergyInflow  : -0.027310765 [W]
EnergyOutflow : -0.026938689 [W]
EnergyBalance : 0.00037207597 [W]
rho max/avg/min : 1.2016418 1.1801115 1.0956369
T   max/avg/min : 322.06129 299.23672 293.70067
P   max/avg/min : 101324.91 101316.16 101307.41
Prg max/avg/min : 101325 101324.84 101323.45
U   max/avg/min : 0.0055234718 0.003102023 -0.0012479542
Prg max-min : 1.5496078
 
Iteration Number = 18

DILUPBiCG:  Solving for Ux, Initial residual = 0.12857915, Final residual = 3.6031926e-05, No Iterations 2
DILUPBiCG:  Solving for Uy, Initial residual = 0.00061362836, Final residual = 5.8314344e-08, No Iterations 2
DILUPBiCG:  Solving for Uz, Initial residual = 0.13229375, Final residual = 9.5340316e-06, No Iterations 2
DILUPBiCG:  Solving for h, Initial residual = 0.026396991, Final residual = 1.5002529e-05, No Iterations 3
GAMG:  Solving for p_rgh, Initial residual = 0.0047885924, Final residual = 7.0947977e-07, No Iterations 5
time step continuity errors : sum local = 1.1915311e-05, global = 2.8758304e-06, cumulative = 6.0968095e-05
ExecutionTime = 0.71 s  ClockTime = 1 s
Inflow      : -1.1959323e-07 [kg/s]
Outflow     : -1.1719479e-07 [kg/s]
EnergyInflow  : -0.03533528 [W]
EnergyOutflow : -0.03452157 [W]
EnergyBalance : 0.00081370982 [W]
rho max/avg/min : 1.2016395 1.1789048 1.0930064
T   max/avg/min : 322.83638 299.55725 293.70108
P   max/avg/min : 101324.91 101316.16 101307.41
Prg max/avg/min : 101325 101324.83 101323.41
U   max/avg/min : 0.0066155034 0.0037512828 -0.0016555587
Prg max-min : 1.5878291
 
Iteration Number = 19

DILUPBiCG:  Solving for Ux, Initial residual = 0.11695464, Final residual = 3.5904185e-05, No Iterations 2
DILUPBiCG:  Solving for Uy, Initial residual = 0.00080437249, Final residual = 8.392484e-08, No Iterations 2
DILUPBiCG:  Solving for Uz, Initial residual = 0.12699974, Final residual = 1.1569546e-05, No Iterations 2
DILUPBiCG:  Solving for h, Initial residual = 0.025074557, Final residual = 1.6391543e-05, No Iterations 3
GAMG:  Solving for p_rgh, Initial residual = 0.0052693666, Final residual = 5.1737702e-06, No Iterations 4
time step continuity errors : sum local = 9.168335e-05, global = 1.0548901e-05, cumulative = 7.1516995e-05
ExecutionTime = 0.75 s  ClockTime = 1 s
Inflow      : -1.5231234e-07 [kg/s]
Outflow     : -1.4351456e-07 [kg/s]
EnergyInflow  : -0.045002538 [W]
EnergyOutflow : -0.042257245 [W]
EnergyBalance : 0.002745293 [W]
rho max/avg/min : 1.2016355 1.1777039 1.0904754
T   max/avg/min : 323.58571 299.87695 293.70171
P   max/avg/min : 101324.91 101316.16 101307.41
Prg max/avg/min : 101325 101324.82 101323.38
U   max/avg/min : 0.0078904984 0.0044842281 -0.0022096577
Prg max-min : 1.6244373
 
Iteration Number = 20

DILUPBiCG:  Solving for Ux, Initial residual = 0.11866177, Final residual = 4.3058126e-05, No Iterations 2
DILUPBiCG:  Solving for Uy, Initial residual = 0.0009137515, Final residual = 1.417999e-07, No Iterations 2
DILUPBiCG:  Solving for Uz, Initial residual = 0.12007361, Final residual = 1.2157478e-05, No Iterations 2
DILUPBiCG:  Solving for h, Initial residual = 0.023863266, Final residual = 3.3287056e-06, No Iterations 4
GAMG:  Solving for p_rgh, Initial residual = 0.0053811798, Final residual = 5.0437749e-06, No Iterations 4
time step continuity errors : sum local = 9.3928785e-05, global = 5.0434927e-05, cumulative = 0.00012195192
ExecutionTime = 0.78 s  ClockTime = 1 s
Inflow      : -2.2166774e-07 [kg/s]
Outflow     : -1.7960504e-07 [kg/s]
EnergyInflow  : -0.065494438 [W]
EnergyOutflow : -0.052865177 [W]
EnergyBalance : 0.012629261 [W]
rho max/avg/min : 1.2016301 1.1765099 1.0880366
T   max/avg/min : 324.31102 300.1955 293.7026
P   max/avg/min : 101324.91 101316.16 101307.41
Prg max/avg/min : 101325 101324.82 101323.34
U   max/avg/min : 0.0093719918 0.0053103756 -0.0028590988
Prg max-min : 1.659802
 
Iteration Number = 21

DILUPBiCG:  Solving for Ux, Initial residual = 0.11587067, Final residual = 4.5008636e-05, No Iterations 2
DILUPBiCG:  Solving for Uy, Initial residual = 0.0010693837, Final residual = 2.14345e-07, No Iterations 2
DILUPBiCG:  Solving for Uz, Initial residual = 0.11266109, Final residual = 1.1763019e-05, No Iterations 2
DILUPBiCG:  Solving for h, Initial residual = 0.022743262, Final residual = 9.1344786e-06, No Iterations 4
GAMG:  Solving for p_rgh, Initial residual = 0.0058803763, Final residual = 1.8708728e-06, No Iterations 5
time step continuity errors : sum local = 3.6530851e-05, global = 1.8009572e-05, cumulative = 0.00013996149
ExecutionTime = 0.82 s  ClockTime = 1 s
Inflow      : -2.2504834e-07 [kg/s]
Outflow     : -2.1002836e-07 [kg/s]
EnergyInflow  : -0.066493277 [W]
EnergyOutflow : -0.061777471 [W]
EnergyBalance : 0.0047158053 [W]
rho max/avg/min : 1.2016212 1.1753234 1.085682
T   max/avg/min : 325.01436 300.5127 293.70397
P   max/avg/min : 101324.91 101316.16 101307.41
Prg max/avg/min : 101325 101324.81 101323.31
U   max/avg/min : 0.011087943 0.0062396166 -0.0036097125
Prg max-min : 1.6940968
 
Iteration Number = 22

DILUPBiCG:  Solving for Ux, Initial residual = 0.11800912, Final residual = 5.4518104e-05, No Iterations 2
DILUPBiCG:  Solving for Uy, Initial residual = 0.0014837468, Final residual = 3.8236731e-07, No Iterations 2
DILUPBiCG:  Solving for Uz, Initial residual = 0.10501218, Final residual = 1.1081728e-05, No Iterations 2
DILUPBiCG:  Solving for h, Initial residual = 0.021704225, Final residual = 1.9940106e-05, No Iterations 4
GAMG:  Solving for p_rgh, Initial residual = 0.0066619917, Final residual = 6.2559229e-06, No Iterations 4
time step continuity errors : sum local = 0.0001277007, global = 4.6469863e-05, cumulative = 0.00018643136
ExecutionTime = 0.86 s  ClockTime = 1 s
Inflow      : -2.8931662e-07 [kg/s]
Outflow     : -2.5056078e-07 [kg/s]
EnergyInflow  : -0.085482125 [W]
EnergyOutflow : -0.073648548 [W]
EnergyBalance : 0.011833577 [W]
rho max/avg/min : 1.2016117 1.1741426 1.0834064
T   max/avg/min : 325.69702 300.82902 293.70617
P   max/avg/min : 101324.91 101316.16 101307.41
Prg max/avg/min : 101325 101324.8 101323.27
U   max/avg/min : 0.013047974 0.0072540236 -0.0045140224
Prg max-min : 1.7271964
 
Iteration Number = 23

DILUPBiCG:  Solving for Ux, Initial residual = 0.11906897, Final residual = 6.1440508e-05, No Iterations 2
DILUPBiCG:  Solving for Uy, Initial residual = 0.0017334667, Final residual = 4.6558336e-07, No Iterations 2
DILUPBiCG:  Solving for Uz, Initial residual = 0.09835139, Final residual = 1.2175968e-05, No Iterations 2
DILUPBiCG:  Solving for h, Initial residual = 0.02072221, Final residual = 1.2724953e-06, No Iterations 5
GAMG:  Solving for p_rgh, Initial residual = 0.0070999294, Final residual = 4.2975769e-06, No Iterations 4
time step continuity errors : sum local = 9.022288e-05, global = 8.3757081e-06, cumulative = 0.00019480707
ExecutionTime = 0.89 s  ClockTime = 1 s
Inflow      : -2.7493743e-07 [kg/s]
Outflow     : -2.6795209e-07 [kg/s]
EnergyInflow  : -0.081233617 [W]
EnergyOutflow : -0.07864465 [W]
EnergyBalance : 0.0025889662 [W]
rho max/avg/min : 1.2016062 1.1729715 1.0812027
T   max/avg/min : 326.36088 301.1434 293.70947
P   max/avg/min : 101324.91 101316.16 101307.41
Prg max/avg/min : 101325 101324.79 101323.24
U   max/avg/min : 0.015270889 0.0083942609 -0.0055686462
Prg max-min : 1.7591967
 
Iteration Number = 24

DILUPBiCG:  Solving for Ux, Initial residual = 0.11390215, Final residual = 6.7899029e-05, No Iterations 2
DILUPBiCG:  Solving for Uy, Initial residual = 0.0018695254, Final residual = 6.5414045e-07, No Iterations 2
DILUPBiCG:  Solving for Uz, Initial residual = 0.090299554, Final residual = 1.0502917e-05, No Iterations 2
DILUPBiCG:  Solving for h, Initial residual = 0.019815973, Final residual = 7.4234138e-06, No Iterations 4
GAMG:  Solving for p_rgh, Initial residual = 0.0078652169, Final residual = 1.3228569e-06, No Iterations 5
time step continuity errors : sum local = 2.8771963e-05, global = -3.2539302e-06, cumulative = 0.00019155314
ExecutionTime = 0.94 s  ClockTime = 1 s
Inflow      : -2.8400444e-07 [kg/s]
Outflow     : -2.8671821e-07 [kg/s]
EnergyInflow  : -0.083912576 [W]
EnergyOutflow : -0.083999404 [W]
EnergyBalance : -8.682877e-05 [W]
rho max/avg/min : 1.2016024 1.1718093 1.0790669
T   max/avg/min : 327.00684 301.45603 293.71047
P   max/avg/min : 101324.91 101316.16 101307.41
Prg max/avg/min : 101325 101324.78 101323.21
U   max/avg/min : 0.017761224 0.0096276113 -0.0067612692
Prg max-min : 1.7900679
 
Iteration Number = 25

DILUPBiCG:  Solving for Ux, Initial residual = 0.11203102, Final residual = 7.2893621e-05, No Iterations 2
DILUPBiCG:  Solving for Uy, Initial residual = 0.002135871, Final residual = 9.0811752e-07, No Iterations 2
DILUPBiCG:  Solving for Uz, Initial residual = 0.085097339, Final residual = 1.1784946e-05, No Iterations 2
DILUPBiCG:  Solving for h, Initial residual = 0.018950259, Final residual = 1.719682e-05, No Iterations 4
GAMG:  Solving for p_rgh, Initial residual = 0.0080050515, Final residual = 5.043971e-06, No Iterations 4
time step continuity errors : sum local = 0.00011338821, global = 2.1400479e-05, cumulative = 0.00021295361
ExecutionTime = 0.97 s  ClockTime = 1 s
Inflow      : -2.8105527e-07 [kg/s]
Outflow     : -2.6320728e-07 [kg/s]
EnergyInflow  : -0.083041209 [W]
EnergyOutflow : -0.076804598 [W]
EnergyBalance : 0.0062366106 [W]
rho max/avg/min : 1.2015991 1.1706585 1.0769932
T   max/avg/min : 327.63648 301.76629 293.71129
P   max/avg/min : 101324.91 101316.16 101307.41
Prg max/avg/min : 101325 101324.77 101323.18
U   max/avg/min : 0.02054065 0.010969773 -0.0079572457
Prg max-min : 1.8199735
 
Iteration Number = 26

DILUPBiCG:  Solving for Ux, Initial residual = 0.096523892, Final residual = 6.4489961e-05, No Iterations 2
DILUPBiCG:  Solving for Uy, Initial residual = 0.0025437484, Final residual = 1.2138058e-06, No Iterations 2
DILUPBiCG:  Solving for Uz, Initial residual = 0.077635363, Final residual = 1.1604226e-05, No Iterations 2
DILUPBiCG:  Solving for h, Initial residual = 0.018142143, Final residual = 6.3589229e-06, No Iterations 4
GAMG:  Solving for p_rgh, Initial residual = 0.0085989154, Final residual = 7.0551684e-06, No Iterations 4
time step continuity errors : sum local = 0.00016416059, global = 5.9004046e-05, cumulative = 0.00027195766
ExecutionTime = 1.01 s  ClockTime = 1 s
Inflow      : -2.3212216e-07 [kg/s]
Outflow     : -1.8291282e-07 [kg/s]
EnergyInflow  : -0.068583324 [W]
EnergyOutflow : -0.052751106 [W]
EnergyBalance : 0.015832218 [W]
rho max/avg/min : 1.2015956 1.1695183 1.0749792
T   max/avg/min : 328.25031 302.07434 293.71213
P   max/avg/min : 101324.91 101316.16 101307.41
Prg max/avg/min : 101325 101324.77 101323.15
U   max/avg/min : 0.023599064 0.012423721 -0.0090993552
Prg max-min : 1.8488616
 
Iteration Number = 27

DILUPBiCG:  Solving for Ux, Initial residual = 0.10091772, Final residual = 8.2206551e-05, No Iterations 2
DILUPBiCG:  Solving for Uy, Initial residual = 0.0028446387, Final residual = 1.9118496e-06, No Iterations 2
DILUPBiCG:  Solving for Uz, Initial residual = 0.07277219, Final residual = 1.1880267e-05, No Iterations 2
DILUPBiCG:  Solving for h, Initial residual = 0.017374695, Final residual = 6.6314106e-06, No Iterations 4
GAMG:  Solving for p_rgh, Initial residual = 0.0081565554, Final residual = 4.1556674e-06, No Iterations 4
time step continuity errors : sum local = 0.00010046644, global = 2.3083279e-05, cumulative = 0.00029504094
ExecutionTime = 1.04 s  ClockTime = 1 s
Inflow      : -1.153962e-07 [kg/s]
Outflow     : -9.6144761e-08 [kg/s]
EnergyInflow  : -0.034095216 [W]
EnergyOutflow : -0.02670996 [W]
EnergyBalance : 0.0073852555 [W]
rho max/avg/min : 1.201593 1.1683902 1.0730208
T   max/avg/min : 328.84941 302.37976 293.71278
P   max/avg/min : 101324.91 101316.16 101307.41
Prg max/avg/min : 101325 101324.76 101323.13
U   max/avg/min : 0.026939676 0.013988039 -0.010299029
Prg max-min : 1.8768747
 
Iteration Number = 28

DILUPBiCG:  Solving for Ux, Initial residual = 0.092335722, Final residual = 7.3861794e-05, No Iterations 2
DILUPBiCG:  Solving for Uy, Initial residual = 0.0031809464, Final residual = 6.1811622e-08, No Iterations 3
DILUPBiCG:  Solving for Uz, Initial residual = 0.06722303, Final residual = 1.2708669e-05, No Iterations 2
DILUPBiCG:  Solving for h, Initial residual = 0.016655054, Final residual = 1.4429327e-05, No Iterations 4
GAMG:  Solving for p_rgh, Initial residual = 0.0084604581, Final residual = 6.5009346e-06, No Iterations 4
time step continuity errors : sum local = 0.00016514248, global = 6.5656541e-05, cumulative = 0.00036069748
ExecutionTime = 1.08 s  ClockTime = 1 s
Inflow      : 2.5822954e-09 [kg/s]
Outflow     : 5.7339811e-08 [kg/s]
EnergyInflow  : 0.00076297068 [W]
EnergyOutflow : 0.019149205 [W]
EnergyBalance : 0.018386235 [W]
rho max/avg/min : 1.2015906 1.1672742 1.0711154
T   max/avg/min : 329.43441 302.68255 293.71336
P   max/avg/min : 101324.91 101316.16 101307.42
Prg max/avg/min : 101325 101324.75 101323.1
U   max/avg/min : 0.030541986 0.015647595 -0.011435482
Prg max-min : 1.903979
 
Iteration Number = 29

DILUPBiCG:  Solving for Ux, Initial residual = 0.092365723, Final residual = 8.1681363e-05, No Iterations 2
DILUPBiCG:  Solving for Uy, Initial residual = 0.0036513832, Final residual = 2.3263952e-06, No Iterations 2
DILUPBiCG:  Solving for Uz, Initial residual = 0.063084055, Final residual = 1.2398173e-05, No Iterations 2
DILUPBiCG:  Solving for h, Initial residual = 0.015967041, Final residual = 5.5844656e-06, No Iterations 4
GAMG:  Solving for p_rgh, Initial residual = 0.0075529994, Final residual = 2.8491082e-06, No Iterations 4
time step continuity errors : sum local = 7.5665877e-05, global = 4.6607118e-06, cumulative = 0.00036535819
ExecutionTime = 1.12 s  ClockTime = 1 s
Inflow      : 2.3527742e-07 [kg/s]
Outflow     : 2.3916445e-07 [kg/s]
EnergyInflow  : 0.069515583 [W]
EnergyOutflow : 0.073484119 [W]
EnergyBalance : 0.003968536 [W]
rho max/avg/min : 1.2015879 1.1661729 1.0692585
T   max/avg/min : 330.00653 302.98203 293.71402
P   max/avg/min : 101324.91 101316.16 101307.42
Prg max/avg/min : 101325 101324.74 101323.07
U   max/avg/min : 0.034446803 0.017418887 -0.012590997
Prg max-min : 1.9303679
 
Iteration Number = 30

DILUPBiCG:  Solving for Ux, Initial residual = 0.081255542, Final residual = 6.8910272e-05, No Iterations 2
DILUPBiCG:  Solving for Uy, Initial residual = 0.0038102928, Final residual = 1.2126675e-06, No Iterations 3
DILUPBiCG:  Solving for Uz, Initial residual = 0.058839091, Final residual = 1.3405276e-05, No Iterations 2
DILUPBiCG:  Solving for h, Initial residual = 0.015319818, Final residual = 7.9368066e-06, No Iterations 4
GAMG:  Solving for p_rgh, Initial residual = 0.0070184729, Final residual = 4.5729056e-06, No Iterations 4
time step continuity errors : sum local = 0.00012722093, global = 6.2357759e-05, cumulative = 0.00042771595
ExecutionTime = 1.15 s  ClockTime = 1 s
Inflow      : 4.5440348e-07 [kg/s]
Outflow     : 5.0640981e-07 [kg/s]
EnergyInflow  : 0.13425905 [W]
EnergyOutflow : 0.15317433 [W]
EnergyBalance : 0.018915279 [W]
rho max/avg/min : 1.2015872 1.1650866 1.0674481
T   max/avg/min : 330.56622 303.2781 293.71418
P   max/avg/min : 101324.91 101316.16 101307.42
Prg max/avg/min : 101325 101324.73 101323.05
U   max/avg/min : 0.038596616 0.019282137 -0.013543777
Prg max-min : 1.9561163
 
Iteration Number = 31

DILUPBiCG:  Solving for Ux, Initial residual = 0.079627379, Final residual = 7.55178e-05, No Iterations 2
DILUPBiCG:  Solving for Uy, Initial residual = 0.0042597191, Final residual = 2.2692601e-07, No Iterations 3
DILUPBiCG:  Solving for Uz, Initial residual = 0.055248521, Final residual = 1.2832871e-05, No Iterations 2
DILUPBiCG:  Solving for h, Initial residual = 0.014713111, Final residual = 2.8887871e-07, No Iterations 6
GAMG:  Solving for p_rgh, Initial residual = 0.007599816, Final residual = 3.3629188e-06, No Iterations 4
time step continuity errors : sum local = 9.7240912e-05, global = -7.4858449e-06, cumulative = 0.00042023011
ExecutionTime = 1.19 s  ClockTime = 1 s
Inflow      : 8.7292338e-07 [kg/s]
Outflow     : 8.6668019e-07 [kg/s]
EnergyInflow  : 0.25791586 [W]
EnergyOutflow : 0.26053038 [W]
EnergyBalance : 0.0026145145 [W]
rho max/avg/min : 1.2015872 1.164016 1.0656806
T   max/avg/min : 331.11448 303.57059 293.71419
P   max/avg/min : 101324.91 101316.16 101307.42
Prg max/avg/min : 101325 101324.73 101323.02
U   max/avg/min : 0.043007352 0.021271056 -0.014413541
Prg max-min : 1.9811474
 
Iteration Number = 32

DILUPBiCG:  Solving for Ux, Initial residual = 0.072518753, Final residual = 3.635799e-06, No Iterations 3
DILUPBiCG:  Solving for Uy, Initial residual = 0.0048334711, Final residual = 2.2811935e-07, No Iterations 3
DILUPBiCG:  Solving for Uz, Initial residual = 0.052758253, Final residual = 1.3655627e-05, No Iterations 2
DILUPBiCG:  Solving for h, Initial residual = 0.01413212, Final residual = 1.2729197e-05, No Iterations 4
GAMG:  Solving for p_rgh, Initial residual = 0.0064193496, Final residual = 4.8513075e-06, No Iterations 4
time step continuity errors : sum local = 0.00014472626, global = -2.5887316e-05, cumulative = 0.00039434279
ExecutionTime = 1.23 s  ClockTime = 1 s
Inflow      : 1.2985036e-06 [kg/s]
Outflow     : 1.2769136e-06 [kg/s]
EnergyInflow  : 0.38365873 [W]
EnergyOutflow : 0.38278529 [W]
EnergyBalance : -0.0008734372 [W]
rho max/avg/min : 1.2015892 1.1629626 1.0639561
T   max/avg/min : 331.65115 303.85907 293.71369
P   max/avg/min : 101324.91 101316.16 101307.42
Prg max/avg/min : 101325 101324.72 101323
U   max/avg/min : 0.047658876 0.02334761 -0.01513276
Prg max-min : 2.0054758
 
Iteration Number = 33

DILUPBiCG:  Solving for Ux, Initial residual = 0.071969551, Final residual = 2.9530716e-06, No Iterations 3
DILUPBiCG:  Solving for Uy, Initial residual = 0.0051791831, Final residual = 4.4532322e-06, No Iterations 2
DILUPBiCG:  Solving for Uz, Initial residual = 0.049066151, Final residual = 1.2476488e-05, No Iterations 2
DILUPBiCG:  Solving for h, Initial residual = 0.01358104, Final residual = 1.3008052e-05, No Iterations 4
GAMG:  Solving for p_rgh, Initial residual = 0.0059442068, Final residual = 2.9920752e-06, No Iterations 4
time step continuity errors : sum local = 8.9271605e-05, global = -2.2091925e-05, cumulative = 0.00037225086
ExecutionTime = 1.27 s  ClockTime = 1 s
Inflow      : 1.8108064e-06 [kg/s]
Outflow     : 1.7923818e-06 [kg/s]
EnergyInflow  : 0.53502484 [W]
EnergyOutflow : 0.5362935 [W]
EnergyBalance : 0.0012686521 [W]
rho max/avg/min : 1.2016042 1.1619273 1.0622715
T   max/avg/min : 332.17712 304.1433 293.71002
P   max/avg/min : 101324.91 101316.16 101307.42
Prg max/avg/min : 101325 101324.71 101322.97
U   max/avg/min : 0.052544704 0.025513254 -0.015889908
Prg max-min : 2.029401
 
Iteration Number = 34

DILUPBiCG:  Solving for Ux, Initial residual = 0.06583611, Final residual = 3.9762714e-06, No Iterations 3
DILUPBiCG:  Solving for Uy, Initial residual = 0.0054001408, Final residual = 2.347545e-07, No Iterations 3
DILUPBiCG:  Solving for Uz, Initial residual = 0.047427994, Final residual = 1.2635336e-05, No Iterations 2
DILUPBiCG:  Solving for h, Initial residual = 0.013062396, Final residual = 6.2131503e-06, No Iterations 5
GAMG:  Solving for p_rgh, Initial residual = 0.0071607959, Final residual = 5.5749355e-06, No Iterations 4
time step continuity errors : sum local = 0.00016221497, global = 8.074565e-05, cumulative = 0.00045299651
ExecutionTime = 1.3 s  ClockTime = 1 s
Inflow      : 2.3321474e-06 [kg/s]
Outflow     : 2.3994892e-06 [kg/s]
EnergyInflow  : 0.68906139 [W]
EnergyOutflow : 0.71711613 [W]
EnergyBalance : 0.028054745 [W]
rho max/avg/min : 1.2016221 1.1609112 1.060622
T   max/avg/min : 332.69371 304.423 293.70565
P   max/avg/min : 101324.91 101316.16 101307.42
Prg max/avg/min : 101325 101324.7 101322.95
U   max/avg/min : 0.057687905 0.027769274 -0.016810025
Prg max-min : 2.0524042
 
Iteration Number = 35

DILUPBiCG:  Solving for Ux, Initial residual = 0.063902065, Final residual = 2.7875983e-06, No Iterations 3
DILUPBiCG:  Solving for Uy, Initial residual = 0.0053592924, Final residual = 5.1121342e-06, No Iterations 2
DILUPBiCG:  Solving for Uz, Initial residual = 0.044305357, Final residual = 1.1624894e-05, No Iterations 2
DILUPBiCG:  Solving for h, Initial residual = 0.012561687, Final residual = 4.4716646e-06, No Iterations 5
GAMG:  Solving for p_rgh, Initial residual = 0.0065537363, Final residual = 3.5041901e-06, No Iterations 4
time step continuity errors : sum local = 9.9153023e-05, global = 7.4293845e-07, cumulative = 0.00045373945
ExecutionTime = 1.34 s  ClockTime = 1 s
Inflow      : 3.1157529e-06 [kg/s]
Outflow     : 3.1163725e-06 [kg/s]
EnergyInflow  : 0.92058722 [W]
EnergyOutflow : 0.93056346 [W]
EnergyBalance : 0.0099762429 [W]
rho max/avg/min : 1.2016331 1.1599148 1.0590096
T   max/avg/min : 333.20028 304.69799 293.70298
P   max/avg/min : 101324.91 101316.16 101307.42
Prg max/avg/min : 101325 101324.69 101322.93
U   max/avg/min : 0.063046377 0.030126426 -0.017533763
Prg max-min : 2.0750995
 
Iteration Number = 36

DILUPBiCG:  Solving for Ux, Initial residual = 0.060856225, Final residual = 4.3034546e-06, No Iterations 3
DILUPBiCG:  Solving for Uy, Initial residual = 0.0058855407, Final residual = 2.4100246e-07, No Iterations 3
DILUPBiCG:  Solving for Uz, Initial residual = 0.044551871, Final residual = 1.1913959e-05, No Iterations 2
DILUPBiCG:  Solving for h, Initial residual = 0.012086229, Final residual = 4.7781692e-06, No Iterations 5
GAMG:  Solving for p_rgh, Initial residual = 0.0071631964, Final residual = 4.3097982e-06, No Iterations 4
time step continuity errors : sum local = 0.00011660909, global = 8.4042629e-05, cumulative = 0.00053778208
ExecutionTime = 1.38 s  ClockTime = 2 s
Inflow      : 3.8860517e-06 [kg/s]
Outflow     : 3.9561432e-06 [kg/s]
EnergyInflow  : 1.1481814 [W]
EnergyOutflow : 1.1805271 [W]
EnergyBalance : 0.032345683 [W]
rho max/avg/min : 1.2016404 1.1589399 1.0574308
T   max/avg/min : 333.69776 304.96783 293.70119
P   max/avg/min : 101324.91 101316.16 101307.42
Prg max/avg/min : 101325 101324.69 101322.91
U   max/avg/min : 0.068603265 0.032561081 -0.018095711
Prg max-min : 2.0973096
 
Iteration Number = 37

DILUPBiCG:  Solving for Ux, Initial residual = 0.05794433, Final residual = 8.7282381e-06, No Iterations 3
DILUPBiCG:  Solving for Uy, Initial residual = 0.0060208205, Final residual = 4.1497457e-07, No Iterations 3
DILUPBiCG:  Solving for Uz, Initial residual = 0.041058278, Final residual = 1.0717949e-05, No Iterations 2
DILUPBiCG:  Solving for h, Initial residual = 0.011644189, Final residual = 3.1460201e-06, No Iterations 5
GAMG:  Solving for p_rgh, Initial residual = 0.010191513, Final residual = 4.4921814e-06, No Iterations 4
time step continuity errors : sum local = 0.00011753812, global = 4.3608095e-06, cumulative = 0.00054214289
ExecutionTime = 1.43 s  ClockTime = 2 s
Inflow      : 4.8885237e-06 [kg/s]
Outflow     : 4.8921607e-06 [kg/s]
EnergyInflow  : 1.444374 [W]
EnergyOutflow : 1.4592123 [W]
EnergyBalance : 0.014838354 [W]
rho max/avg/min : 1.2016437 1.1579865 1.0558855
T   max/avg/min : 334.18613 305.23247 293.70038
P   max/avg/min : 101324.91 101316.16 101307.42
Prg max/avg/min : 101325 101324.68 101322.88
U   max/avg/min : 0.074350864 0.035085622 -0.018527818
Prg max-min : 2.1186229
 
Iteration Number = 38

DILUPBiCG:  Solving for Ux, Initial residual = 0.055041659, Final residual = 3.6944757e-06, No Iterations 3
DILUPBiCG:  Solving for Uy, Initial residual = 0.0062477497, Final residual = 3.2347942e-07, No Iterations 3
DILUPBiCG:  Solving for Uz, Initial residual = 0.042639636, Final residual = 1.1876329e-05, No Iterations 2
DILUPBiCG:  Solving for h, Initial residual = 0.011207749, Final residual = 4.7586876e-06, No Iterations 5
GAMG:  Solving for p_rgh, Initial residual = 0.0097371763, Final residual = 3.9973235e-06, No Iterations 4
time step continuity errors : sum local = 0.00010112613, global = 5.9848102e-05, cumulative = 0.00060199099
ExecutionTime = 1.46 s  ClockTime = 2 s
Inflow      : 5.8956117e-06 [kg/s]
Outflow     : 5.945525e-06 [kg/s]
EnergyInflow  : 1.7419304 [W]
EnergyOutflow : 1.7728015 [W]
EnergyBalance : 0.030871093 [W]
rho max/avg/min : 1.2016452 1.1570563 1.054372
T   max/avg/min : 334.66583 305.49144 293.70002
P   max/avg/min : 101324.91 101316.16 101307.42
Prg max/avg/min : 101325 101324.67 101322.86
U   max/avg/min : 0.080267484 0.037672801 -0.018663202
Prg max-min : 2.1395739
 
Iteration Number = 39

DILUPBiCG:  Solving for Ux, Initial residual = 0.049118175, Final residual = 2.2678132e-06, No Iterations 3
DILUPBiCG:  Solving for Uy, Initial residual = 0.007638129, Final residual = 3.4624664e-06, No Iterations 3
DILUPBiCG:  Solving for Uz, Initial residual = 0.038884314, Final residual = 1.0619722e-05, No Iterations 2
DILUPBiCG:  Solving for h, Initial residual = 0.010784722, Final residual = 9.8074224e-06, No Iterations 5
GAMG:  Solving for p_rgh, Initial residual = 0.010735416, Final residual = 5.6343613e-06, No Iterations 4
time step continuity errors : sum local = 0.00013709642, global = -1.2438439e-05, cumulative = 0.00058955255
ExecutionTime = 1.5 s  ClockTime = 2 s
Inflow      : 7.2020486e-06 [kg/s]
Outflow     : 7.191675e-06 [kg/s]
EnergyInflow  : 2.1279331 [W]
EnergyOutflow : 2.1435968 [W]
EnergyBalance : 0.015663624 [W]
rho max/avg/min : 1.2016456 1.1561494 1.0528882
T   max/avg/min : 335.13748 305.74477 293.69991
P   max/avg/min : 101324.91 101316.16 101307.42
Prg max/avg/min : 101325 101324.66 101322.84
U   max/avg/min : 0.086343492 0.0403748 -0.018507324
Prg max-min : 2.1607959
 
Iteration Number = 40

DILUPBiCG:  Solving for Ux, Initial residual = 0.050909563, Final residual = 4.8529235e-06, No Iterations 3
DILUPBiCG:  Solving for Uy, Initial residual = 0.0078000398, Final residual = 3.4026759e-07, No Iterations 3
DILUPBiCG:  Solving for Uz, Initial residual = 0.042373395, Final residual = 1.3460675e-05, No Iterations 2
DILUPBiCG:  Solving for h, Initial residual = 0.010365895, Final residual = 1.0278431e-05, No Iterations 4
GAMG:  Solving for p_rgh, Initial residual = 0.012740026, Final residual = 8.6594261e-06, No Iterations 4
time step continuity errors : sum local = 0.00019686048, global = -5.6697621e-05, cumulative = 0.00053285493
ExecutionTime = 1.53 s  ClockTime = 2 s
Inflow      : 8.5671978e-06 [kg/s]
Outflow     : 8.519912e-06 [kg/s]
EnergyInflow  : 2.5312831 [W]
EnergyOutflow : 2.5388688 [W]
EnergyBalance : 0.0075856855 [W]
rho max/avg/min : 1.2016458 1.1552682 1.051437
T   max/avg/min : 335.60005 305.99172 293.69971
P   max/avg/min : 101324.91 101316.16 101307.42
Prg max/avg/min : 101325 101324.66 101322.82
U   max/avg/min : 0.092564647 0.043134784 -0.01827311
Prg max-min : 2.1807326
 
Iteration Number = 41

DILUPBiCG:  Solving for Ux, Initial residual = 0.045428003, Final residual = 3.169546e-06, No Iterations 3
DILUPBiCG:  Solving for Uy, Initial residual = 0.0082408271, Final residual = 5.8720564e-07, No Iterations 3
DILUPBiCG:  Solving for Uz, Initial residual = 0.037688165, Final residual = 1.1757e-05, No Iterations 2
DILUPBiCG:  Solving for h, Initial residual = 0.0099681789, Final residual = 2.6923839e-06, No Iterations 6
GAMG:  Solving for p_rgh, Initial residual = 0.017143233, Final residual = 8.3179024e-06, No Iterations 4
time step continuity errors : sum local = 0.00017818596, global = -3.3684202e-05, cumulative = 0.00049917073
ExecutionTime = 1.57 s  ClockTime = 2 s
Inflow      : 9.9437029e-06 [kg/s]
Outflow     : 9.9156103e-06 [kg/s]
EnergyInflow  : 2.9379883 [W]
EnergyOutflow : 2.9544223 [W]
EnergyBalance : 0.016433971 [W]
rho max/avg/min : 1.2016459 1.1544117 1.0500135
T   max/avg/min : 336.05502 306.23259 293.6995
P   max/avg/min : 101324.91 101316.16 101307.42
Prg max/avg/min : 101325 101324.65 101322.8
U   max/avg/min : 0.09887873 0.045917596 -0.017854791
Prg max-min : 2.2015643
 
Iteration Number = 42

DILUPBiCG:  Solving for Ux, Initial residual = 0.050994007, Final residual = 1.2236562e-05, No Iterations 3
DILUPBiCG:  Solving for Uy, Initial residual = 0.0090192384, Final residual = 4.7707661e-08, No Iterations 4
DILUPBiCG:  Solving for Uz, Initial residual = 0.038966901, Final residual = 1.4164017e-05, No Iterations 2
DILUPBiCG:  Solving for h, Initial residual = 0.0095638206, Final residual = 2.6327744e-06, No Iterations 6
GAMG:  Solving for p_rgh, Initial residual = 0.015994261, Final residual = 4.9750819e-06, No Iterations 4
time step continuity errors : sum local = 0.00010299845, global = 4.9916376e-05, cumulative = 0.00054908711
ExecutionTime = 1.61 s  ClockTime = 2 s
Inflow      : 1.1360683e-05 [kg/s]
Outflow     : 1.1402313e-05 [kg/s]
EnergyInflow  : 3.3566524 [W]
EnergyOutflow : 3.3970811 [W]
EnergyBalance : 0.040428782 [W]
rho max/avg/min : 1.2016459 1.1535819 1.0486179
T   max/avg/min : 336.50225 306.46682 293.69925
P   max/avg/min : 101324.91 101316.16 101307.42
Prg max/avg/min : 101325 101324.64 101322.78
U   max/avg/min : 0.10533758 0.048768473 -0.017120907
Prg max-min : 2.2210133
 
Iteration Number = 43

DILUPBiCG:  Solving for Ux, Initial residual = 0.042109606, Final residual = 3.1523055e-06, No Iterations 3
DILUPBiCG:  Solving for Uy, Initial residual = 0.0092091679, Final residual = 5.2392388e-07, No Iterations 3
DILUPBiCG:  Solving for Uz, Initial residual = 0.036751019, Final residual = 1.4157999e-05, No Iterations 2
DILUPBiCG:  Solving for h, Initial residual = 0.0091744065, Final residual = 1.9782446e-06, No Iterations 6
GAMG:  Solving for p_rgh, Initial residual = 0.017387928, Final residual = 9.4733402e-06, No Iterations 4
time step continuity errors : sum local = 0.00019139382, global = 1.0776841e-06, cumulative = 0.00055016479
ExecutionTime = 1.65 s  ClockTime = 2 s
Inflow      : 1.3163342e-05 [kg/s]
Outflow     : 1.316424e-05 [kg/s]
EnergyInflow  : 3.8892699 [W]
EnergyOutflow : 3.9213229 [W]
EnergyBalance : 0.032052974 [W]
rho max/avg/min : 1.2016459 1.1527792 1.0472497
T   max/avg/min : 336.94191 306.69431 293.69898
P   max/avg/min : 101324.91 101316.16 101307.42
Prg max/avg/min : 101325 101324.63 101322.76
U   max/avg/min : 0.11190045 0.051718783 -0.01593333
Prg max-min : 2.2435465
 
Iteration Number = 44

DILUPBiCG:  Solving for Ux, Initial residual = 0.047350349, Final residual = 4.0806248e-06, No Iterations 3
DILUPBiCG:  Solving for Uy, Initial residual = 0.0095008818, Final residual = 1.6723065e-06, No Iterations 3
DILUPBiCG:  Solving for Uz, Initial residual = 0.038551428, Final residual = 1.7879866e-05, No Iterations 2
DILUPBiCG:  Solving for h, Initial residual = 0.0087766182, Final residual = 2.1100334e-06, No Iterations 6
GAMG:  Solving for p_rgh, Initial residual = 0.021524721, Final residual = 6.8358825e-06, No Iterations 4
time step continuity errors : sum local = 0.00012980633, global = -4.9466955e-06, cumulative = 0.0005452181
ExecutionTime = 1.69 s  ClockTime = 2 s
Inflow      : 1.468971e-05 [kg/s]
Outflow     : 1.4685585e-05 [kg/s]
EnergyInflow  : 4.3402542 [W]
EnergyOutflow : 4.3745684 [W]
EnergyBalance : 0.034314253 [W]
rho max/avg/min : 1.2016459 1.1520045 1.0459078
T   max/avg/min : 337.37417 306.91481 293.69864
P   max/avg/min : 101324.91 101316.16 101307.42
Prg max/avg/min : 101325 101324.63 101322.74
U   max/avg/min : 0.11851974 0.054633251 -0.014917619
Prg max-min : 2.2600892
 
Iteration Number = 45

DILUPBiCG:  Solving for Ux, Initial residual = 0.034646921, Final residual = 2.4390353e-06, No Iterations 3
DILUPBiCG:  Solving for Uy, Initial residual = 0.0096856076, Final residual = 1.0910657e-06, No Iterations 3
DILUPBiCG:  Solving for Uz, Initial residual = 0.032827304, Final residual = 1.3721684e-05, No Iterations 2
DILUPBiCG:  Solving for h, Initial residual = 0.0083905626, Final residual = 2.3103758e-06, No Iterations 6
GAMG:  Solving for p_rgh, Initial residual = 0.024748326, Final residual = 2.2726125e-05, No Iterations 3
time step continuity errors : sum local = 0.00041809079, global = 0.00014927326, cumulative = 0.00069449135
ExecutionTime = 1.72 s  ClockTime = 2 s
Inflow      : 1.6365083e-05 [kg/s]
Outflow     : 1.6489577e-05 [kg/s]
EnergyInflow  : 4.8352635 [W]
EnergyOutflow : 4.911689 [W]
EnergyBalance : 0.076425511 [W]
rho max/avg/min : 1.2016459 1.1512572 1.0445918
T   max/avg/min : 337.79921 307.12839 293.69836
P   max/avg/min : 101324.91 101316.16 101307.42
Prg max/avg/min : 101325 101324.62 101322.72
U   max/avg/min : 0.12523696 0.057615538 -0.013595317
Prg max-min : 2.2844224
 
Iteration Number = 46

DILUPBiCG:  Solving for Ux, Initial residual = 0.039742024, Final residual = 2.722814e-05, No Iterations 3
DILUPBiCG:  Solving for Uy, Initial residual = 0.00995837, Final residual = 5.4038601e-07, No Iterations 3
DILUPBiCG:  Solving for Uz, Initial residual = 0.03683448, Final residual = 1.9367131e-05, No Iterations 2
DILUPBiCG:  Solving for h, Initial residual = 0.0080095705, Final residual = 1.1481516e-06, No Iterations 7
GAMG:  Solving for p_rgh, Initial residual = 0.024692679, Final residual = 4.6554488e-06, No Iterations 4
time step continuity errors : sum local = 8.3966263e-05, global = 5.232501e-05, cumulative = 0.00074681636
ExecutionTime = 1.76 s  ClockTime = 2 s
Inflow      : 1.8308638e-05 [kg/s]
Outflow     : 1.8352277e-05 [kg/s]
EnergyInflow  : 5.4095106 [W]
EnergyOutflow : 5.4663855 [W]
EnergyBalance : 0.056874901 [W]
rho max/avg/min : 1.2016459 1.1505378 1.0433006
T   max/avg/min : 338.21728 307.33493 293.69798
P   max/avg/min : 101324.91 101316.16 101307.42
Prg max/avg/min : 101325 101324.61 101322.7
U   max/avg/min : 0.13205924 0.060663034 -0.012184641
Prg max-min : 2.3017939
 
Iteration Number = 47

DILUPBiCG:  Solving for Ux, Initial residual = 0.027346748, Final residual = 1.667879e-06, No Iterations 3
DILUPBiCG:  Solving for Uy, Initial residual = 0.0094024607, Final residual = 2.9065593e-08, No Iterations 4
DILUPBiCG:  Solving for Uz, Initial residual = 0.03248297, Final residual = 1.5789928e-05, No Iterations 2
DILUPBiCG:  Solving for h, Initial residual = 0.0076110539, Final residual = 3.3420055e-06, No Iterations 7
GAMG:  Solving for p_rgh, Initial residual = 0.025433068, Final residual = 1.9093813e-05, No Iterations 3
time step continuity errors : sum local = 0.00032146167, global = 0.00013129922, cumulative = 0.00087811558
ExecutionTime = 1.79 s  ClockTime = 2 s
Inflow      : 1.9967704e-05 [kg/s]
Outflow     : 2.0077207e-05 [kg/s]
EnergyInflow  : 5.8997016 [W]
EnergyOutflow : 5.98035 [W]
EnergyBalance : 0.080648398 [W]
rho max/avg/min : 1.2016459 1.1498469 1.0420341
T   max/avg/min : 338.62835 307.53427 293.69761
P   max/avg/min : 101324.91 101316.16 101307.42
Prg max/avg/min : 101325 101324.61 101322.68
U   max/avg/min : 0.13896729 0.063652839 -0.010009412
Prg max-min : 2.3222612
 
Iteration Number = 48

DILUPBiCG:  Solving for Ux, Initial residual = 0.032309164, Final residual = 2.6093462e-06, No Iterations 3
DILUPBiCG:  Solving for Uy, Initial residual = 0.0099352251, Final residual = 6.3668804e-07, No Iterations 3
DILUPBiCG:  Solving for Uz, Initial residual = 0.031704799, Final residual = 1.4515168e-05, No Iterations 2
DILUPBiCG:  Solving for h, Initial residual = 0.0072431254, Final residual = 3.2370511e-06, No Iterations 6
GAMG:  Solving for p_rgh, Initial residual = 0.023853018, Final residual = 1.3959888e-05, No Iterations 3
time step continuity errors : sum local = 0.00022529055, global = 3.2116887e-05, cumulative = 0.00091023247
ExecutionTime = 1.83 s  ClockTime = 2 s
Inflow      : 2.2145277e-05 [kg/s]
Outflow     : 2.2172063e-05 [kg/s]
EnergyInflow  : 6.5430923 [W]
EnergyOutflow : 6.6038452 [W]
EnergyBalance : 0.060752945 [W]
rho max/avg/min : 1.2016459 1.1491825 1.0407914
T   max/avg/min : 339.03266 307.72686 293.69724
P   max/avg/min : 101324.91 101316.15 101307.41
Prg max/avg/min : 101325 101324.6 101322.65
U   max/avg/min : 0.14609986 0.066851368 -0.0069719763
Prg max-min : 2.3478241
 
Iteration Number = 49

DILUPBiCG:  Solving for Ux, Initial residual = 0.023393835, Final residual = 2.6049998e-06, No Iterations 3
DILUPBiCG:  Solving for Uy, Initial residual = 0.011319611, Final residual = 1.3125766e-06, No Iterations 3
DILUPBiCG:  Solving for Uz, Initial residual = 0.036122774, Final residual = 1.9900586e-05, No Iterations 2
DILUPBiCG:  Solving for h, Initial residual = 0.0068601722, Final residual = 4.0944406e-06, No Iterations 7
GAMG:  Solving for p_rgh, Initial residual = 0.021371933, Final residual = 9.9234572e-06, No Iterations 4
time step continuity errors : sum local = 0.00015089477, global = -4.4982587e-05, cumulative = 0.00086524988
ExecutionTime = 1.87 s  ClockTime = 2 s
Inflow      : 2.418096e-05 [kg/s]
Outflow     : 2.4143444e-05 [kg/s]
EnergyInflow  : 7.1445595 [W]
EnergyOutflow : 7.1908065 [W]
EnergyBalance : 0.046246956 [W]
rho max/avg/min : 1.2016459 1.1485452 1.039573
T   max/avg/min : 339.42998 307.9125 293.69676
P   max/avg/min : 101324.91 101316.16 101307.41
Prg max/avg/min : 101325 101324.59 101322.64
U   max/avg/min : 0.15337227 0.070025065 -0.0046806566
Prg max-min : 2.3620024
 
Iteration Number = 50

DILUPBiCG:  Solving for Ux, Initial residual = 0.029831988, Final residual = 1.2929307e-05, No Iterations 3
DILUPBiCG:  Solving for Uy, Initial residual = 0.01169224, Final residual = 3.5011168e-06, No Iterations 3
DILUPBiCG:  Solving for Uz, Initial residual = 0.029290374, Final residual = 1.2716262e-05, No Iterations 2
DILUPBiCG:  Solving for h, Initial residual = 0.006516389, Final residual = 1.8227518e-06, No Iterations 7
GAMG:  Solving for p_rgh, Initial residual = 0.030212008, Final residual = 1.5713034e-05, No Iterations 4
time step continuity errors : sum local = 0.00022400116, global = 3.5828009e-05, cumulative = 0.00090107789
ExecutionTime = 1.91 s  ClockTime = 2 s
Inflow      : 2.5888178e-05 [kg/s]
Outflow     : 2.5918059e-05 [kg/s]
EnergyInflow  : 7.648978 [W]
EnergyOutflow : 7.7195476 [W]
EnergyBalance : 0.070569549 [W]
rho max/avg/min : 1.2016459 1.1479333 1.038377
T   max/avg/min : 339.82095 308.09164 293.69637
P   max/avg/min : 101324.91 101316.15 101307.41
Prg max/avg/min : 101325 101324.59 101322.62
U   max/avg/min : 0.16072153 0.073102697 -0.001726792
Prg max-min : 2.383837
 
Iteration Number = 51

DILUPBiCG:  Solving for Ux, Initial residual = 0.025699738, Final residual = 2.3637954e-06, No Iterations 3
DILUPBiCG:  Solving for Uy, Initial residual = 0.012592749, Final residual = 9.7516371e-07, No Iterations 3
DILUPBiCG:  Solving for Uz, Initial residual = 0.030252142, Final residual = 1.4401033e-05, No Iterations 2
DILUPBiCG:  Solving for h, Initial residual = 0.0061972394, Final residual = 1.4347886e-06, No Iterations 7
GAMG:  Solving for p_rgh, Initial residual = 0.013269419, Final residual = 2.3296035e-06, No Iterations 5
time step continuity errors : sum local = 3.2170183e-05, global = -7.935484e-06, cumulative = 0.00089314241
ExecutionTime = 1.95 s  ClockTime = 2 s
Inflow      : 2.7480821e-05 [kg/s]
Outflow     : 2.7474202e-05 [kg/s]
EnergyInflow  : 8.1195437 [W]
EnergyOutflow : 8.1835923 [W]
EnergyBalance : 0.064048612 [W]
rho max/avg/min : 1.2016458 1.1473459 1.0372035
T   max/avg/min : 340.20541 308.26441 293.69592
P   max/avg/min : 101324.91 101316.15 101307.41
Prg max/avg/min : 101325 101324.58 101322.6
U   max/avg/min : 0.16815269 0.076153882 0
Prg max-min : 2.3999631
 
Iteration Number = 52

DILUPBiCG:  Solving for Ux, Initial residual = 0.029494695, Final residual = 6.3236631e-06, No Iterations 3
DILUPBiCG:  Solving for Uy, Initial residual = 0.013196696, Final residual = 9.2852879e-07, No Iterations 3
DILUPBiCG:  Solving for Uz, Initial residual = 0.026539055, Final residual = 1.1192908e-05, No Iterations 2
DILUPBiCG:  Solving for h, Initial residual = 0.0059045276, Final residual = 5.1732196e-06, No Iterations 6
GAMG:  Solving for p_rgh, Initial residual = 0.010868496, Final residual = 7.7144456e-06, No Iterations 4
time step continuity errors : sum local = 0.0001041532, global = 3.0534857e-05, cumulative = 0.00092367727
ExecutionTime = 1.98 s  ClockTime = 2 s
Inflow      : 2.8897215e-05 [kg/s]
Outflow     : 2.8922681e-05 [kg/s]
EnergyInflow  : 8.5380346 [W]
EnergyOutflow : 8.6155176 [W]
EnergyBalance : 0.077482959 [W]
rho max/avg/min : 1.2016458 1.1467817 1.0360512
T   max/avg/min : 340.58382 308.43117 293.69549
P   max/avg/min : 101324.91 101316.15 101307.4
Prg max/avg/min : 101325 101324.58 101322.58
U   max/avg/min : 0.1756543 0.079139434 0
Prg max-min : 2.4194497
 
Iteration Number = 53

DILUPBiCG:  Solving for Ux, Initial residual = 0.026084979, Final residual = 4.2401405e-06, No Iterations 3
DILUPBiCG:  Solving for Uy, Initial residual = 0.014209264, Final residual = 3.7571987e-06, No Iterations 3
DILUPBiCG:  Solving for Uz, Initial residual = 0.026088004, Final residual = 1.1393577e-05, No Iterations 2
DILUPBiCG:  Solving for h, Initial residual = 0.0056343097, Final residual = 3.4969851e-06, No Iterations 6
GAMG:  Solving for p_rgh, Initial residual = 0.0094986379, Final residual = 1.5827231e-06, No Iterations 5
time step continuity errors : sum local = 2.1063527e-05, global = -7.465326e-06, cumulative = 0.00091621194
ExecutionTime = 2.03 s  ClockTime = 2 s
Inflow      : 3.0222e-05 [kg/s]
Outflow     : 3.0215774e-05 [kg/s]
EnergyInflow  : 8.9294586 [W]
EnergyOutflow : 9.0011856 [W]
EnergyBalance : 0.071726962 [W]
rho max/avg/min : 1.2016458 1.1462393 1.0349207
T   max/avg/min : 340.95582 308.5922 293.69503
P   max/avg/min : 101324.91 101316.15 101307.4
Prg max/avg/min : 101325 101324.57 101322.56
U   max/avg/min : 0.18320232 0.082074128 0
Prg max-min : 2.4355604
 
Iteration Number = 54

DILUPBiCG:  Solving for Ux, Initial residual = 0.027125723, Final residual = 5.0527403e-06, No Iterations 3
DILUPBiCG:  Solving for Uy, Initial residual = 0.013816894, Final residual = 1.1549828e-06, No Iterations 3
DILUPBiCG:  Solving for Uz, Initial residual = 0.023388169, Final residual = 9.6960215e-06, No Iterations 2
DILUPBiCG:  Solving for h, Initial residual = 0.0053765958, Final residual = 1.9510253e-06, No Iterations 6
GAMG:  Solving for p_rgh, Initial residual = 0.0088679531, Final residual = 5.3355534e-06, No Iterations 4
time step continuity errors : sum local = 6.999983e-05, global = 7.463159e-06, cumulative = 0.0009236751
ExecutionTime = 2.06 s  ClockTime = 2 s
Inflow      : 3.131669e-05 [kg/s]
Outflow     : 3.1322914e-05 [kg/s]
EnergyInflow  : 9.2528981 [W]
EnergyOutflow : 9.3315417 [W]
EnergyBalance : 0.078643508 [W]
rho max/avg/min : 1.2016458 1.1457174 1.0338119
T   max/avg/min : 341.32151 308.74783 293.69459
P   max/avg/min : 101324.91 101316.15 101307.4
Prg max/avg/min : 101325 101324.57 101322.55
U   max/avg/min : 0.19079746 0.08491939 0
Prg max-min : 2.4524365
 
Iteration Number = 55

DILUPBiCG:  Solving for Ux, Initial residual = 0.026138361, Final residual = 2.1510664e-06, No Iterations 3
DILUPBiCG:  Solving for Uy, Initial residual = 0.014658492, Final residual = 7.4494755e-07, No Iterations 3
DILUPBiCG:  Solving for Uz, Initial residual = 0.021821441, Final residual = 8.8560069e-06, No Iterations 2
DILUPBiCG:  Solving for h, Initial residual = 0.0051336444, Final residual = 2.7575645e-06, No Iterations 6
GAMG:  Solving for p_rgh, Initial residual = 0.0088614257, Final residual = 7.4616957e-06, No Iterations 4
time step continuity errors : sum local = 9.7031008e-05, global = 6.0682899e-06, cumulative = 0.00092974339
ExecutionTime = 2.1 s  ClockTime = 2 s
Inflow      : 3.2213446e-05 [kg/s]
Outflow     : 3.2218507e-05 [kg/s]
EnergyInflow  : 9.5178556 [W]
EnergyOutflow : 9.5989888 [W]
EnergyBalance : 0.081133189 [W]
rho max/avg/min : 1.2016458 1.1452145 1.0327246
T   max/avg/min : 341.68089 308.89838 293.69413
P   max/avg/min : 101324.91 101316.15 101307.4
Prg max/avg/min : 101325 101324.57 101322.53
U   max/avg/min : 0.19842696 0.087667392 0
Prg max-min : 2.4673124
 
Iteration Number = 56

DILUPBiCG:  Solving for Ux, Initial residual = 0.02544871, Final residual = 1.7116772e-06, No Iterations 3
DILUPBiCG:  Solving for Uy, Initial residual = 0.015032732, Final residual = 6.6710539e-07, No Iterations 3
DILUPBiCG:  Solving for Uz, Initial residual = 0.019477117, Final residual = 8.0680831e-06, No Iterations 2
DILUPBiCG:  Solving for h, Initial residual = 0.0049036932, Final residual = 4.4169674e-06, No Iterations 5
GAMG:  Solving for p_rgh, Initial residual = 0.0094719707, Final residual = 3.482807e-06, No Iterations 4
time step continuity errors : sum local = 4.4979606e-05, global = -1.4110226e-05, cumulative = 0.00091563316
ExecutionTime = 2.15 s  ClockTime = 2 s
Inflow      : 3.3017147e-05 [kg/s]
Outflow     : 3.3005379e-05 [kg/s]
EnergyInflow  : 9.7553189 [W]
EnergyOutflow : 9.8339937 [W]
EnergyBalance : 0.078674774 [W]
rho max/avg/min : 1.2016458 1.1447293 1.0316576
T   max/avg/min : 342.03427 309.04418 293.6937
P   max/avg/min : 101324.91 101316.15 101307.4
Prg max/avg/min : 101325 101324.56 101322.51
U   max/avg/min : 0.20608003 0.090346682 0
Prg max-min : 2.4844175
 
Iteration Number = 57

DILUPBiCG:  Solving for Ux, Initial residual = 0.025079794, Final residual = 2.1710893e-05, No Iterations 2
DILUPBiCG:  Solving for Uy, Initial residual = 0.015135487, Final residual = 7.7930338e-07, No Iterations 3
DILUPBiCG:  Solving for Uz, Initial residual = 0.018790296, Final residual = 7.6370418e-06, No Iterations 2
DILUPBiCG:  Solving for h, Initial residual = 0.0046837584, Final residual = 3.2446106e-06, No Iterations 5
GAMG:  Solving for p_rgh, Initial residual = 0.0087104141, Final residual = 6.3478519e-06, No Iterations 4
time step continuity errors : sum local = 8.1718773e-05, global = -5.8988202e-06, cumulative = 0.00090973434
ExecutionTime = 2.19 s  ClockTime = 2 s
Inflow      : 3.3717985e-05 [kg/s]
Outflow     : 3.3713065e-05 [kg/s]
EnergyInflow  : 9.9623899 [W]
EnergyOutflow : 10.045338 [W]
EnergyBalance : 0.082948218 [W]
rho max/avg/min : 1.2016458 1.144261 1.0306103
T   max/avg/min : 342.38184 309.18537 293.69324
P   max/avg/min : 101324.91 101316.15 101307.4
Prg max/avg/min : 101325 101324.56 101322.5
U   max/avg/min : 0.21378459 0.092971937 0
Prg max-min : 2.4991039
 
Iteration Number = 58

DILUPBiCG:  Solving for Ux, Initial residual = 0.024195839, Final residual = 2.1143218e-05, No Iterations 2
DILUPBiCG:  Solving for Uy, Initial residual = 0.015868842, Final residual = 5.8674423e-06, No Iterations 3
DILUPBiCG:  Solving for Uz, Initial residual = 0.017169736, Final residual = 6.9724207e-06, No Iterations 2
DILUPBiCG:  Solving for h, Initial residual = 0.0044733686, Final residual = 3.1136044e-06, No Iterations 5
GAMG:  Solving for p_rgh, Initial residual = 0.0086304602, Final residual = 2.3489274e-06, No Iterations 4
time step continuity errors : sum local = 3.012519e-05, global = -8.349312e-06, cumulative = 0.00090138503
ExecutionTime = 2.23 s  ClockTime = 2 s
Inflow      : 3.4360022e-05 [kg/s]
Outflow     : 3.4353059e-05 [kg/s]
EnergyInflow  : 10.152088 [W]
EnergyOutflow : 10.236474 [W]
EnergyBalance : 0.084386467 [W]
rho max/avg/min : 1.2016458 1.143809 1.0295826
T   max/avg/min : 342.72358 309.32215 293.69282
P   max/avg/min : 101324.91 101316.15 101307.4
Prg max/avg/min : 101325 101324.55 101322.48
U   max/avg/min : 0.22151864 0.095536395 0
Prg max-min : 2.5150444
 
Iteration Number = 59

DILUPBiCG:  Solving for Ux, Initial residual = 0.023796933, Final residual = 1.9852777e-05, No Iterations 2
DILUPBiCG:  Solving for Uy, Initial residual = 0.015401833, Final residual = 5.5659645e-06, No Iterations 3
DILUPBiCG:  Solving for Uz, Initial residual = 0.01646986, Final residual = 6.7749633e-06, No Iterations 2
DILUPBiCG:  Solving for h, Initial residual = 0.0042734265, Final residual = 3.114055e-06, No Iterations 5
GAMG:  Solving for p_rgh, Initial residual = 0.0084560152, Final residual = 5.9711822e-06, No Iterations 4
time step continuity errors : sum local = 7.6480911e-05, global = -5.9532261e-06, cumulative = 0.0008954318
ExecutionTime = 2.26 s  ClockTime = 2 s
Inflow      : 3.4961283e-05 [kg/s]
Outflow     : 3.4956318e-05 [kg/s]
EnergyInflow  : 10.329738 [W]
EnergyOutflow : 10.416619 [W]
EnergyBalance : 0.086881208 [W]
rho max/avg/min : 1.2016458 1.1433725 1.0285742
T   max/avg/min : 343.05958 309.45465 293.69239
P   max/avg/min : 101324.91 101316.15 101307.4
Prg max/avg/min : 101325 101324.55 101322.47
U   max/avg/min : 0.22929101 0.098059202 0
Prg max-min : 2.5297855
 
Iteration Number = 60

DILUPBiCG:  Solving for Ux, Initial residual = 0.023282345, Final residual = 2.0261856e-05, No Iterations 2
DILUPBiCG:  Solving for Uy, Initial residual = 0.014815436, Final residual = 2.0604607e-06, No Iterations 3
DILUPBiCG:  Solving for Uz, Initial residual = 0.015427276, Final residual = 6.2081394e-06, No Iterations 2
DILUPBiCG:  Solving for h, Initial residual = 0.004083534, Final residual = 2.5970359e-06, No Iterations 5
GAMG:  Solving for p_rgh, Initial residual = 0.0083601133, Final residual = 2.1568943e-06, No Iterations 4
time step continuity errors : sum local = 2.7559699e-05, global = 7.3737297e-06, cumulative = 0.00090280553
ExecutionTime = 2.3 s  ClockTime = 2 s
Inflow      : 3.5533592e-05 [kg/s]
Outflow     : 3.5539742e-05 [kg/s]
EnergyInflow  : 10.498833 [W]
EnergyOutflow : 10.590816 [W]
EnergyBalance : 0.091982774 [W]
rho max/avg/min : 1.2016458 1.1429511 1.0275846
T   max/avg/min : 343.38998 309.583 293.69199
P   max/avg/min : 101324.91 101316.15 101307.4
Prg max/avg/min : 101325 101324.55 101322.45
U   max/avg/min : 0.23710645 0.10053845 0
Prg max-min : 2.5448897
 
Iteration Number = 61

DILUPBiCG:  Solving for Ux, Initial residual = 0.021903084, Final residual = 1.7900916e-05, No Iterations 2
DILUPBiCG:  Solving for Uy, Initial residual = 0.015515761, Final residual = 5.8231711e-06, No Iterations 3
DILUPBiCG:  Solving for Uz, Initial residual = 0.014817662, Final residual = 6.1002602e-06, No Iterations 2
DILUPBiCG:  Solving for h, Initial residual = 0.0039036398, Final residual = 2.4297975e-06, No Iterations 5
GAMG:  Solving for p_rgh, Initial residual = 0.0081731195, Final residual = 4.1597638e-06, No Iterations 4
time step continuity errors : sum local = 5.3077245e-05, global = -8.1814753e-06, cumulative = 0.00089462406
ExecutionTime = 2.34 s  ClockTime = 2 s
Inflow      : 3.6095651e-05 [kg/s]
Outflow     : 3.6088828e-05 [kg/s]
EnergyInflow  : 10.6649 [W]
EnergyOutflow : 10.754808 [W]
EnergyBalance : 0.089907409 [W]
rho max/avg/min : 1.2016458 1.1425444 1.0266134
T   max/avg/min : 343.71481 309.70728 293.69158
P   max/avg/min : 101324.91 101316.15 101307.4
Prg max/avg/min : 101325 101324.54 101322.44
U   max/avg/min : 0.2449464 0.10297629 0
Prg max-min : 2.5589941
 
Iteration Number = 62

DILUPBiCG:  Solving for Ux, Initial residual = 0.022028044, Final residual = 1.8509598e-05, No Iterations 2
DILUPBiCG:  Solving for Uy, Initial residual = 0.015164807, Final residual = 1.8639719e-06, No Iterations 3
DILUPBiCG:  Solving for Uz, Initial residual = 0.013960517, Final residual = 5.6886281e-06, No Iterations 2
DILUPBiCG:  Solving for h, Initial residual = 0.0037335574, Final residual = 2.3272674e-06, No Iterations 5
GAMG:  Solving for p_rgh, Initial residual = 0.0080222871, Final residual = 1.6937573e-06, No Iterations 4
time step continuity errors : sum local = 2.1556629e-05, global = 1.2453315e-05, cumulative = 0.00090707737
ExecutionTime = 2.37 s  ClockTime = 3 s
Inflow      : 3.6624512e-05 [kg/s]
Outflow     : 3.6634898e-05 [kg/s]
EnergyInflow  : 10.821159 [W]
EnergyOutflow : 10.91788 [W]
EnergyBalance : 0.096720748 [W]
rho max/avg/min : 1.2016458 1.1421518 1.0256606
T   max/avg/min : 344.03413 309.82759 293.69122
P   max/avg/min : 101324.91 101316.15 101307.4
Prg max/avg/min : 101325 101324.54 101322.42
U   max/avg/min : 0.25277447 0.10537379 0
Prg max-min : 2.5734378
 
Iteration Number = 63

DILUPBiCG:  Solving for Ux, Initial residual = 0.020688183, Final residual = 1.6694673e-05, No Iterations 2
DILUPBiCG:  Solving for Uy, Initial residual = 0.014548948, Final residual = 1.3235194e-06, No Iterations 3
DILUPBiCG:  Solving for Uz, Initial residual = 0.013439447, Final residual = 5.5688573e-06, No Iterations 2
DILUPBiCG:  Solving for h, Initial residual = 0.0035730129, Final residual = 2.4167067e-06, No Iterations 5
GAMG:  Solving for p_rgh, Initial residual = 0.0077205158, Final residual = 3.3363951e-06, No Iterations 4
time step continuity errors : sum local = 4.2378339e-05, global = -1.4518617e-05, cumulative = 0.00089255876
ExecutionTime = 2.41 s  ClockTime = 3 s
Inflow      : 3.7142431e-05 [kg/s]
Outflow     : 3.7130323e-05 [kg/s]
EnergyInflow  : 10.974184 [W]
EnergyOutflow : 11.065957 [W]
EnergyBalance : 0.091772281 [W]
rho max/avg/min : 1.2016458 1.1417732 1.0247258
T   max/avg/min : 344.34797 309.944 293.69085
P   max/avg/min : 101324.91 101316.15 101307.4
Prg max/avg/min : 101325 101324.54 101322.41
U   max/avg/min : 0.26054219 0.1077261 0
Prg max-min : 2.5866715
 
Iteration Number = 64

DILUPBiCG:  Solving for Ux, Initial residual = 0.020565372, Final residual = 1.7225086e-05, No Iterations 2
DILUPBiCG:  Solving for Uy, Initial residual = 0.014921594, Final residual = 2.9175504e-06, No Iterations 3
DILUPBiCG:  Solving for Uz, Initial residual = 0.012649082, Final residual = 5.2456975e-06, No Iterations 2
DILUPBiCG:  Solving for h, Initial residual = 0.0034218505, Final residual = 2.4833557e-06, No Iterations 5
GAMG:  Solving for p_rgh, Initial residual = 0.0074667147, Final residual = 2.4236648e-06, No Iterations 4
time step continuity errors : sum local = 3.070375e-05, global = -6.3194836e-06, cumulative = 0.00088623927
ExecutionTime = 2.45 s  ClockTime = 3 s
Inflow      : 3.7620012e-05 [kg/s]
Outflow     : 3.7614741e-05 [kg/s]
EnergyInflow  : 11.115291 [W]
EnergyOutflow : 11.21077 [W]
EnergyBalance : 0.095479049 [W]
rho max/avg/min : 1.2016458 1.1414081 1.0238087
T   max/avg/min : 344.65641 310.05661 293.69054
P   max/avg/min : 101324.91 101316.15 101307.4
Prg max/avg/min : 101325 101324.53 101322.4
U   max/avg/min : 0.26825387 0.11003394 0
Prg max-min : 2.6004538
 
Iteration Number = 65

DILUPBiCG:  Solving for Ux, Initial residual = 0.019511912, Final residual = 1.6185416e-05, No Iterations 2
DILUPBiCG:  Solving for Uy, Initial residual = 0.014223265, Final residual = 1.2168308e-06, No Iterations 3
DILUPBiCG:  Solving for Uz, Initial residual = 0.012184808, Final residual = 5.083384e-06, No Iterations 2
DILUPBiCG:  Solving for h, Initial residual = 0.0032796502, Final residual = 2.6548342e-06, No Iterations 5
GAMG:  Solving for p_rgh, Initial residual = 0.007085784, Final residual = 2.6218476e-06, No Iterations 4
time step continuity errors : sum local = 3.3152092e-05, global = -1.3397668e-05, cumulative = 0.00087284161
ExecutionTime = 2.48 s  ClockTime = 3 s
Inflow      : 3.8056244e-05 [kg/s]
Outflow     : 3.8045071e-05 [kg/s]
EnergyInflow  : 11.244182 [W]
EnergyOutflow : 11.339587 [W]
EnergyBalance : 0.095405511 [W]
rho max/avg/min : 1.2016458 1.1410562 1.0229092
T   max/avg/min : 344.95951 310.16549 293.69021
P   max/avg/min : 101324.91 101316.15 101307.4
Prg max/avg/min : 101325 101324.53 101322.39
U   max/avg/min : 0.27587948 0.11229051 0
Prg max-min : 2.6128042
 
Iteration Number = 66

DILUPBiCG:  Solving for Ux, Initial residual = 0.019119234, Final residual = 1.6525017e-05, No Iterations 2
DILUPBiCG:  Solving for Uy, Initial residual = 0.014133222, Final residual = 2.6104376e-06, No Iterations 3
DILUPBiCG:  Solving for Uz, Initial residual = 0.011428009, Final residual = 4.7849557e-06, No Iterations 2
DILUPBiCG:  Solving for h, Initial residual = 0.0031461112, Final residual = 5.6139777e-07, No Iterations 6
GAMG:  Solving for p_rgh, Initial residual = 0.006748446, Final residual = 1.8583352e-06, No Iterations 4
time step continuity errors : sum local = 2.3443445e-05, global = 2.2589815e-06, cumulative = 0.00087510059
ExecutionTime = 2.52 s  ClockTime = 3 s
Inflow      : 3.8453407e-05 [kg/s]
Outflow     : 3.8455291e-05 [kg/s]
EnergyInflow  : 11.361528 [W]
EnergyOutflow : 11.462449 [W]
EnergyBalance : 0.10092096 [W]
rho max/avg/min : 1.2016458 1.1407173 1.0220268
T   max/avg/min : 345.25734 310.27068 293.68995
P   max/avg/min : 101324.91 101316.15 101307.4
Prg max/avg/min : 101325 101324.53 101322.37
U   max/avg/min : 0.28340422 0.11450075 0
Prg max-min : 2.6261429
 
Iteration Number = 67

DILUPBiCG:  Solving for Ux, Initial residual = 0.018096561, Final residual = 1.3904962e-05, No Iterations 2
DILUPBiCG:  Solving for Uy, Initial residual = 0.014050942, Final residual = 4.0480535e-08, No Iterations 4
DILUPBiCG:  Solving for Uz, Initial residual = 0.011079137, Final residual = 4.6436738e-06, No Iterations 2
DILUPBiCG:  Solving for h, Initial residual = 0.0030205583, Final residual = 8.715901e-07, No Iterations 6
GAMG:  Solving for p_rgh, Initial residual = 0.0063958578, Final residual = 2.4279422e-06, No Iterations 4
time step continuity errors : sum local = 3.059403e-05, global = -1.623676e-05, cumulative = 0.00085886383
ExecutionTime = 2.56 s  ClockTime = 3 s
Inflow      : 3.8829167e-05 [kg/s]
Outflow     : 3.8815625e-05 [kg/s]
EnergyInflow  : 11.472551 [W]
EnergyOutflow : 11.570553 [W]
EnergyBalance : 0.098001662 [W]
rho max/avg/min : 1.2016458 1.140391 1.0211615
T   max/avg/min : 345.54988 310.3723 293.68967
P   max/avg/min : 101324.91 101316.15 101307.4
Prg max/avg/min : 101325 101324.52 101322.36
U   max/avg/min : 0.29085733 0.11666485 0
Prg max-min : 2.6380371
 
Iteration Number = 68

DILUPBiCG:  Solving for Ux, Initial residual = 0.018019805, Final residual = 1.6073224e-05, No Iterations 2
DILUPBiCG:  Solving for Uy, Initial residual = 0.014047954, Final residual = 7.2120506e-07, No Iterations 3
DILUPBiCG:  Solving for Uz, Initial residual = 0.010469345, Final residual = 4.424488e-06, No Iterations 2
DILUPBiCG:  Solving for h, Initial residual = 0.002901834, Final residual = 6.2972104e-07, No Iterations 6
GAMG:  Solving for p_rgh, Initial residual = 0.0061094875, Final residual = 1.5011714e-06, No Iterations 4
time step continuity errors : sum local = 1.8884936e-05, global = -1.0203841e-05, cumulative = 0.00084865999
ExecutionTime = 2.6 s  ClockTime = 3 s
Inflow      : 3.9159125e-05 [kg/s]
Outflow     : 3.9150615e-05 [kg/s]
EnergyInflow  : 11.570041 [W]
EnergyOutflow : 11.671148 [W]
EnergyBalance : 0.10110688 [W]
rho max/avg/min : 1.2016458 1.1400766 1.020313
T   max/avg/min : 345.83724 310.47048 293.68945
P   max/avg/min : 101324.91 101316.15 101307.4
Prg max/avg/min : 101325 101324.52 101322.35
U   max/avg/min : 0.29820078 0.11878257 0
Prg max-min : 2.6506652
 
Iteration Number = 69

DILUPBiCG:  Solving for Ux, Initial residual = 0.016887559, Final residual = 1.2858516e-05, No Iterations 2
DILUPBiCG:  Solving for Uy, Initial residual = 0.01434353, Final residual = 6.9521986e-07, No Iterations 3
DILUPBiCG:  Solving for Uz, Initial residual = 0.010114916, Final residual = 4.2425707e-06, No Iterations 2
DILUPBiCG:  Solving for h, Initial residual = 0.0027899651, Final residual = 6.8341008e-07, No Iterations 6
[...]
time step continuity errors : sum local = 2.8509221e-06, global = -9.321817e-08, cumulative = 0.00047316868
ExecutionTime = 22.39 s  ClockTime = 23 s
Inflow      : 4.1076868e-05 [kg/s]
Outflow     : 4.107679e-05 [kg/s]
EnergyInflow  : 12.136662 [W]
EnergyOutflow : 12.298955 [W]
EnergyBalance : 0.16229343 [W]
rho max/avg/min : 1.2016458 1.1384056 0.99766816
T   max/avg/min : 353.68697 311.22114 293.68658
P   max/avg/min : 101324.91 101316.16 101307.4
Prg max/avg/min : 101325 101324.5 101322.01
U   max/avg/min : 0.83396214 0.25013953 0
Prg max-min : 2.9842688
 
Iteration Number = 570

DILUPBiCG:  Solving for Ux, Initial residual = 1.1467804e-05, Final residual = 2.6795361e-07, No Iterations 1
DILUPBiCG:  Solving for Uy, Initial residual = 0.015976481, Final residual = 2.9082236e-06, No Iterations 3
DILUPBiCG:  Solving for Uz, Initial residual = 1.0696246e-05, Final residual = 5.7988269e-07, No Iterations 1
DILUPBiCG:  Solving for h, Initial residual = 1.2145348e-06, Final residual = 3.3586881e-07, No Iterations 1
GAMG:  Solving for p_rgh, Initial residual = 1.5603873e-06, Final residual = 2.4288578e-07, No Iterations 1
time step continuity errors : sum local = 2.8310042e-06, global = -9.9506247e-08, cumulative = 0.00047306918
ExecutionTime = 22.42 s  ClockTime = 23 s
Inflow      : 4.1079794e-05 [kg/s]
Outflow     : 4.1079711e-05 [kg/s]
EnergyInflow  : 12.137526 [W]
EnergyOutflow : 12.299818 [W]
EnergyBalance : 0.16229157 [W]
rho max/avg/min : 1.2016458 1.1384058 0.9976689
T   max/avg/min : 353.68671 311.22107 293.68658
P   max/avg/min : 101324.91 101316.16 101307.4
Prg max/avg/min : 101325 101324.5 101322.01
U   max/avg/min : 0.83396823 0.25014337 0
Prg max-min : 2.9842583
 
Iteration Number = 571

DILUPBiCG:  Solving for Ux, Initial residual = 1.1454028e-05, Final residual = 2.6674167e-07, No Iterations 1
DILUPBiCG:  Solving for Uy, Initial residual = 0.015468899, Final residual = 7.9566013e-07, No Iterations 3
DILUPBiCG:  Solving for Uz, Initial residual = 1.0633991e-05, Final residual = 5.62772e-07, No Iterations 1
DILUPBiCG:  Solving for h, Initial residual = 1.1986212e-06, Final residual = 3.3199499e-07, No Iterations 1
GAMG:  Solving for p_rgh, Initial residual = 1.5440394e-06, Final residual = 2.4155146e-07, No Iterations 1
time step continuity errors : sum local = 2.8120047e-06, global = -1.0504648e-07, cumulative = 0.00047296413
ExecutionTime = 22.45 s  ClockTime = 23 s
Inflow      : 4.1082709e-05 [kg/s]
Outflow     : 4.1082622e-05 [kg/s]
EnergyInflow  : 12.138388 [W]
EnergyOutflow : 12.300678 [W]
EnergyBalance : 0.16228991 [W]
rho max/avg/min : 1.2016458 1.138406 0.99766963
T   max/avg/min : 353.68645 311.22101 293.68658
P   max/avg/min : 101324.91 101316.16 101307.4
Prg max/avg/min : 101325 101324.5 101322.01
U   max/avg/min : 0.83397424 0.25014718 0
Prg max-min : 2.9842478
 
Iteration Number = 572

DILUPBiCG:  Solving for Ux, Initial residual = 1.1318766e-05, Final residual = 2.6247292e-07, No Iterations 1
DILUPBiCG:  Solving for Uy, Initial residual = 0.01630739, Final residual = 1.3021221e-05, No Iterations 3
DILUPBiCG:  Solving for Uz, Initial residual = 1.0570945e-05, Final residual = 5.4661894e-07, No Iterations 1
DILUPBiCG:  Solving for h, Initial residual = 1.1830038e-06, Final residual = 3.2790694e-07, No Iterations 1
GAMG:  Solving for p_rgh, Initial residual = 1.5276119e-06, Final residual = 2.3966024e-07, No Iterations 1
time step continuity errors : sum local = 2.7898845e-06, global = -1.1087854e-07, cumulative = 0.00047285325
ExecutionTime = 22.5 s  ClockTime = 23 s
Inflow      : 4.1085614e-05 [kg/s]
Outflow     : 4.1085522e-05 [kg/s]
EnergyInflow  : 12.139246 [W]
EnergyOutflow : 12.301534 [W]
EnergyBalance : 0.16228817 [W]
rho max/avg/min : 1.2016458 1.1384062 0.99767035
T   max/avg/min : 353.6862 311.22094 293.68658
P   max/avg/min : 101324.91 101316.16 101307.4
Prg max/avg/min : 101325 101324.5 101322.01
U   max/avg/min : 0.83398018 0.25015097 0
Prg max-min : 2.9842376
 
Iteration Number = 573

DILUPBiCG:  Solving for Ux, Initial residual = 1.126308e-05, Final residual = 2.617492e-07, No Iterations 1
DILUPBiCG:  Solving for Uy, Initial residual = 0.015421778, Final residual = 1.4573282e-06, No Iterations 3
DILUPBiCG:  Solving for Uz, Initial residual = 1.0507642e-05, Final residual = 5.3102063e-07, No Iterations 1
DILUPBiCG:  Solving for h, Initial residual = 1.1676147e-06, Final residual = 3.2367394e-07, No Iterations 1
GAMG:  Solving for p_rgh, Initial residual = 1.5121262e-06, Final residual = 2.3751628e-07, No Iterations 1
time step continuity errors : sum local = 2.7671787e-06, global = -1.1669019e-07, cumulative = 0.00047273656
ExecutionTime = 22.53 s  ClockTime = 23 s
Inflow      : 4.108851e-05 [kg/s]
Outflow     : 4.1088412e-05 [kg/s]
EnergyInflow  : 12.140101 [W]
EnergyOutflow : 12.302388 [W]
EnergyBalance : 0.16228645 [W]
rho max/avg/min : 1.2016458 1.1384065 0.99767105
T   max/avg/min : 353.68595 311.22087 293.68658
P   max/avg/min : 101324.91 101316.16 101307.4
Prg max/avg/min : 101325 101324.5 101322.01
U   max/avg/min : 0.83398604 0.25015472 0
Prg max-min : 2.9842275
 
Iteration Number = 574

DILUPBiCG:  Solving for Ux, Initial residual = 1.1183454e-05, Final residual = 2.5973879e-07, No Iterations 1
DILUPBiCG:  Solving for Uy, Initial residual = 0.016011409, Final residual = 1.6509795e-06, No Iterations 3
DILUPBiCG:  Solving for Uz, Initial residual = 1.0444535e-05, Final residual = 5.1618066e-07, No Iterations 1
DILUPBiCG:  Solving for h, Initial residual = 1.1524142e-06, Final residual = 3.1951999e-07, No Iterations 1
GAMG:  Solving for p_rgh, Initial residual = 1.496138e-06, Final residual = 2.3569618e-07, No Iterations 1
time step continuity errors : sum local = 2.7456301e-06, global = -1.2107339e-07, cumulative = 0.00047261549
ExecutionTime = 22.56 s  ClockTime = 23 s
Inflow      : 4.1091394e-05 [kg/s]
Outflow     : 4.1091293e-05 [kg/s]
EnergyInflow  : 12.140954 [W]
EnergyOutflow : 12.303239 [W]
EnergyBalance : 0.16228508 [W]
rho max/avg/min : 1.2016458 1.1384067 0.99767175
T   max/avg/min : 353.6857 311.22081 293.68658
P   max/avg/min : 101324.91 101316.16 101307.4
Prg max/avg/min : 101325 101324.5 101322.01
U   max/avg/min : 0.83399182 0.25015844 0
Prg max-min : 2.9842175
 
Iteration Number = 575

DILUPBiCG:  Solving for Ux, Initial residual = 1.109488e-05, Final residual = 2.6073408e-07, No Iterations 1
DILUPBiCG:  Solving for Uy, Initial residual = 0.015854189, Final residual = 3.6330253e-06, No Iterations 3
DILUPBiCG:  Solving for Uz, Initial residual = 1.0380549e-05, Final residual = 5.0210854e-07, No Iterations 1
DILUPBiCG:  Solving for h, Initial residual = 1.137412e-06, Final residual = 3.1522865e-07, No Iterations 1
GAMG:  Solving for p_rgh, Initial residual = 1.480143e-06, Final residual = 2.335369e-07, No Iterations 1
time step continuity errors : sum local = 2.7217881e-06, global = -1.2192663e-07, cumulative = 0.00047249356
ExecutionTime = 22.59 s  ClockTime = 23 s
Inflow      : 4.1094266e-05 [kg/s]
Outflow     : 4.1094164e-05 [kg/s]
EnergyInflow  : 12.141802 [W]
EnergyOutflow : 12.304087 [W]
EnergyBalance : 0.16228459 [W]
rho max/avg/min : 1.2016458 1.1384069 0.99767243
T   max/avg/min : 353.68546 311.22074 293.68658
P   max/avg/min : 101324.91 101316.16 101307.4
Prg max/avg/min : 101325 101324.5 101322.01
U   max/avg/min : 0.83399753 0.25016214 0
Prg max-min : 2.9842077
 
Iteration Number = 576

DILUPBiCG:  Solving for Ux, Initial residual = 1.1036619e-05, Final residual = 2.5947074e-07, No Iterations 1
DILUPBiCG:  Solving for Uy, Initial residual = 0.015254268, Final residual = 1.1405088e-06, No Iterations 3
DILUPBiCG:  Solving for Uz, Initial residual = 1.0317258e-05, Final residual = 4.8914049e-07, No Iterations 1
DILUPBiCG:  Solving for h, Initial residual = 1.1226273e-06, Final residual = 3.1137858e-07, No Iterations 1
GAMG:  Solving for p_rgh, Initial residual = 1.4653432e-06, Final residual = 2.3173246e-07, No Iterations 1
time step continuity errors : sum local = 2.7013581e-06, global = -1.2032151e-07, cumulative = 0.00047237324
ExecutionTime = 22.63 s  ClockTime = 23 s
Inflow      : 4.1097126e-05 [kg/s]
Outflow     : 4.1097026e-05 [kg/s]
EnergyInflow  : 12.142647 [W]
EnergyOutflow : 12.304932 [W]
EnergyBalance : 0.16228471 [W]
rho max/avg/min : 1.2016458 1.1384071 0.99767311
T   max/avg/min : 353.68522 311.22068 293.68658
P   max/avg/min : 101324.91 101316.16 101307.4
Prg max/avg/min : 101325 101324.5 101322.01
U   max/avg/min : 0.83400317 0.25016581 0
Prg max-min : 2.984198
 
Iteration Number = 577

DILUPBiCG:  Solving for Ux, Initial residual = 1.0967318e-05, Final residual = 2.5803648e-07, No Iterations 1
DILUPBiCG:  Solving for Uy, Initial residual = 0.0163504, Final residual = 2.250308e-06, No Iterations 3
DILUPBiCG:  Solving for Uz, Initial residual = 1.0254251e-05, Final residual = 4.766543e-07, No Iterations 1
DILUPBiCG:  Solving for h, Initial residual = 1.1082098e-06, Final residual = 3.0778005e-07, No Iterations 1
GAMG:  Solving for p_rgh, Initial residual = 1.4503363e-06, Final residual = 2.3061282e-07, No Iterations 1
time step continuity errors : sum local = 2.6865509e-06, global = -1.1669383e-07, cumulative = 0.00047225655
ExecutionTime = 22.66 s  ClockTime = 23 s
Inflow      : 4.1099976e-05 [kg/s]
Outflow     : 4.1099878e-05 [kg/s]
EnergyInflow  : 12.143489 [W]
EnergyOutflow : 12.305775 [W]
EnergyBalance : 0.16228533 [W]
rho max/avg/min : 1.2016458 1.1384073 0.99767377
T   max/avg/min : 353.68499 311.22062 293.68658
P   max/avg/min : 101324.91 101316.16 101307.4
Prg max/avg/min : 101325 101324.5 101322.01
U   max/avg/min : 0.83400874 0.25016945 0
Prg max-min : 2.9841885
 
Iteration Number = 578

DILUPBiCG:  Solving for Ux, Initial residual = 3.979931e-05, Final residual = 2.696951e-08, No Iterations 2
DILUPBiCG:  Solving for Uy, Initial residual = 0.015816622, Final residual = 9.3102257e-07, No Iterations 3
DILUPBiCG:  Solving for Uz, Initial residual = 1.0192796e-05, Final residual = 4.6413298e-07, No Iterations 1
DILUPBiCG:  Solving for h, Initial residual = 1.0941268e-06, Final residual = 3.0393236e-07, No Iterations 1
GAMG:  Solving for p_rgh, Initial residual = 1.9167106e-06, Final residual = 2.3092126e-07, No Iterations 1
time step continuity errors : sum local = 2.6895632e-06, global = -1.0861727e-07, cumulative = 0.00047214793
ExecutionTime = 22.7 s  ClockTime = 23 s
Inflow      : 4.1102812e-05 [kg/s]
Outflow     : 4.1102722e-05 [kg/s]
EnergyInflow  : 12.144327 [W]
EnergyOutflow : 12.306614 [W]
EnergyBalance : 0.16228706 [W]
rho max/avg/min : 1.2016458 1.1384075 0.99767443
T   max/avg/min : 353.68475 311.22055 293.68658
P   max/avg/min : 101324.91 101316.16 101307.4
Prg max/avg/min : 101325 101324.5 101322.01
U   max/avg/min : 0.83401425 0.25017306 0
Prg max-min : 2.9841763
 
Iteration Number = 579

DILUPBiCG:  Solving for Ux, Initial residual = 2.8141721e-05, Final residual = 6.822401e-07, No Iterations 1
DILUPBiCG:  Solving for Uy, Initial residual = 0.015713269, Final residual = 9.9755854e-07, No Iterations 3
DILUPBiCG:  Solving for Uz, Initial residual = 1.0131353e-05, Final residual = 5.2304064e-07, No Iterations 1
DILUPBiCG:  Solving for h, Initial residual = 1.0809248e-06, Final residual = 3.1020415e-07, No Iterations 1
GAMG:  Solving for p_rgh, Initial residual = 1.6152633e-06, Final residual = 2.3298261e-07, No Iterations 1
time step continuity errors : sum local = 2.7130996e-06, global = -9.7285863e-08, cumulative = 0.00047205064
ExecutionTime = 22.73 s  ClockTime = 23 s
Inflow      : 4.1105646e-05 [kg/s]
Outflow     : 4.1105565e-05 [kg/s]
EnergyInflow  : 12.145165 [W]
EnergyOutflow : 12.307454 [W]
EnergyBalance : 0.16228965 [W]
rho max/avg/min : 1.2016458 1.1384077 0.99767508
T   max/avg/min : 353.68452 311.22049 293.68658
P   max/avg/min : 101324.91 101316.16 101307.4
Prg max/avg/min : 101325 101324.5 101322.01
U   max/avg/min : 0.83401958 0.25017665 0
Prg max-min : 2.9841741
 
Iteration Number = 580

DILUPBiCG:  Solving for Ux, Initial residual = 1.7103423e-05, Final residual = 4.3908231e-07, No Iterations 1
DILUPBiCG:  Solving for Uy, Initial residual = 0.016055054, Final residual = 7.5341309e-07, No Iterations 3
DILUPBiCG:  Solving for Uz, Initial residual = 1.0074864e-05, Final residual = 4.748373e-07, No Iterations 1
DILUPBiCG:  Solving for h, Initial residual = 1.068342e-06, Final residual = 2.8003171e-07, No Iterations 1
GAMG:  Solving for p_rgh, Initial residual = 1.4431863e-06, Final residual = 2.2602371e-07, No Iterations 1
time step continuity errors : sum local = 2.6332368e-06, global = -9.090254e-08, cumulative = 0.00047195974
ExecutionTime = 22.76 s  ClockTime = 23 s
Inflow      : 4.110847e-05 [kg/s]
Outflow     : 4.1108394e-05 [kg/s]
EnergyInflow  : 12.145999 [W]
EnergyOutflow : 12.30829 [W]
EnergyBalance : 0.16229098 [W]
rho max/avg/min : 1.2016458 1.1384079 0.9976757
T   max/avg/min : 353.6843 311.22043 293.68658
P   max/avg/min : 101324.91 101316.16 101307.4
Prg max/avg/min : 101325 101324.5 101322.01
U   max/avg/min : 0.83402483 0.25018022 0
Prg max-min : 2.9841589
 
Iteration Number = 581

DILUPBiCG:  Solving for Ux, Initial residual = 1.398681e-05, Final residual = 3.9050281e-07, No Iterations 1
DILUPBiCG:  Solving for Uy, Initial residual = 0.015922693, Final residual = 1.0990156e-05, No Iterations 3
DILUPBiCG:  Solving for Uz, Initial residual = 1.0014113e-05, Final residual = 4.2751186e-07, No Iterations 1
DILUPBiCG:  Solving for h, Initial residual = 1.0525933e-06, Final residual = 2.8586531e-07, No Iterations 1
GAMG:  Solving for p_rgh, Initial residual = 1.4022349e-06, Final residual = 2.1910579e-07, No Iterations 1
time step continuity errors : sum local = 2.553789e-06, global = -8.2913352e-08, cumulative = 0.00047187683
ExecutionTime = 22.8 s  ClockTime = 23 s
Inflow      : 4.1111278e-05 [kg/s]
Outflow     : 4.1111209e-05 [kg/s]
EnergyInflow  : 12.146829 [W]
EnergyOutflow : 12.309121 [W]
EnergyBalance : 0.16229268 [W]
rho max/avg/min : 1.2016458 1.1384081 0.99767632
T   max/avg/min : 353.68408 311.22037 293.68658
P   max/avg/min : 101324.91 101316.16 101307.4
Prg max/avg/min : 101325 101324.5 101322.01
U   max/avg/min : 0.83403017 0.25018375 0
Prg max-min : 2.9841542
 
Iteration Number = 582

DILUPBiCG:  Solving for Ux, Initial residual = 1.2151173e-05, Final residual = 2.8177214e-07, No Iterations 1
DILUPBiCG:  Solving for Uy, Initial residual = 0.016323299, Final residual = 1.6798747e-06, No Iterations 3
DILUPBiCG:  Solving for Uz, Initial residual = 9.9610828e-06, Final residual = 4.429252e-07, No Iterations 1
DILUPBiCG:  Solving for h, Initial residual = 1.0394454e-06, Final residual = 2.9414526e-07, No Iterations 1
GAMG:  Solving for p_rgh, Initial residual = 1.3986995e-06, Final residual = 2.2369447e-07, No Iterations 1
time step continuity errors : sum local = 2.6047289e-06, global = -7.1558751e-08, cumulative = 0.00047180527
ExecutionTime = 22.83 s  ClockTime = 23 s
Inflow      : 4.1114079e-05 [kg/s]
Outflow     : 4.111402e-05 [kg/s]
EnergyInflow  : 12.147656 [W]
EnergyOutflow : 12.309952 [W]
EnergyBalance : 0.16229526 [W]
rho max/avg/min : 1.2016458 1.1384083 0.99767694
T   max/avg/min : 353.68386 311.22031 293.68658
P   max/avg/min : 101324.91 101316.16 101307.4
Prg max/avg/min : 101325 101324.5 101322.01
U   max/avg/min : 0.83403538 0.25018726 0
Prg max-min : 2.9841431
 
Iteration Number = 583

DILUPBiCG:  Solving for Ux, Initial residual = 1.145054e-05, Final residual = 2.6295583e-07, No Iterations 1
DILUPBiCG:  Solving for Uy, Initial residual = 0.015918239, Final residual = 3.9746776e-06, No Iterations 3
DILUPBiCG:  Solving for Uz, Initial residual = 9.9042921e-06, Final residual = 4.0612092e-07, No Iterations 1
DILUPBiCG:  Solving for h, Initial residual = 1.029068e-06, Final residual = 2.7769161e-07, No Iterations 1
GAMG:  Solving for p_rgh, Initial residual = 1.3602158e-06, Final residual = 2.2461864e-07, No Iterations 1
time step continuity errors : sum local = 2.6154592e-06, global = -6.4164365e-08, cumulative = 0.00047174111
ExecutionTime = 22.86 s  ClockTime = 23 s
Inflow      : 4.111687e-05 [kg/s]
Outflow     : 4.1116817e-05 [kg/s]
EnergyInflow  : 12.148481 [W]
EnergyOutflow : 12.310778 [W]
EnergyBalance : 0.16229686 [W]
rho max/avg/min : 1.2016458 1.1384085 0.99767754
T   max/avg/min : 353.68365 311.22025 293.68658
P   max/avg/min : 101324.91 101316.16 101307.4
Prg max/avg/min : 101325 101324.5 101322.01
U   max/avg/min : 0.83404054 0.25019074 0
Prg max-min : 2.9841354
 
Iteration Number = 584

DILUPBiCG:  Solving for Ux, Initial residual = 1.1314879e-05, Final residual = 2.8566506e-07, No Iterations 1
DILUPBiCG:  Solving for Uy, Initial residual = 0.015783618, Final residual = 2.12235e-06, No Iterations 3
DILUPBiCG:  Solving for Uz, Initial residual = 9.8518311e-06, Final residual = 4.1154514e-07, No Iterations 1
DILUPBiCG:  Solving for h, Initial residual = 1.0151323e-06, Final residual = 2.8570783e-07, No Iterations 1
GAMG:  Solving for p_rgh, Initial residual = 1.3644491e-06, Final residual = 2.2350651e-07, No Iterations 1
time step continuity errors : sum local = 2.5983265e-06, global = -5.8799654e-08, cumulative = 0.00047168231
ExecutionTime = 22.9 s  ClockTime = 23 s
Inflow      : 4.1119656e-05 [kg/s]
Outflow     : 4.1119607e-05 [kg/s]
EnergyInflow  : 12.149304 [W]
EnergyOutflow : 12.311602 [W]
EnergyBalance : 0.16229795 [W]
rho max/avg/min : 1.2016458 1.1384087 0.99767814
T   max/avg/min : 353.68344 311.2202 293.68658
P   max/avg/min : 101324.91 101316.16 101307.4
Prg max/avg/min : 101325 101324.5 101322.01
U   max/avg/min : 0.83404563 0.2501942 0
Prg max-min : 2.9841266
 
Iteration Number = 585

DILUPBiCG:  Solving for Ux, Initial residual = 1.0477664e-05, Final residual = 2.3617803e-07, No Iterations 1
DILUPBiCG:  Solving for Uy, Initial residual = 0.016164903, Final residual = 1.2964026e-05, No Iterations 3
DILUPBiCG:  Solving for Uz, Initial residual = 9.8001121e-06, Final residual = 3.8957972e-07, No Iterations 1
DILUPBiCG:  Solving for h, Initial residual = 1.0036955e-06, Final residual = 2.7405215e-07, No Iterations 1
GAMG:  Solving for p_rgh, Initial residual = 1.3443498e-06, Final residual = 2.2160946e-07, No Iterations 1
time step continuity errors : sum local = 2.5826662e-06, global = -5.8076692e-08, cumulative = 0.00047162423
ExecutionTime = 22.93 s  ClockTime = 23 s
Inflow      : 4.1122434e-05 [kg/s]
Outflow     : 4.1122386e-05 [kg/s]
EnergyInflow  : 12.150125 [W]
EnergyOutflow : 12.312423 [W]
EnergyBalance : 0.1622979 [W]
rho max/avg/min : 1.2016458 1.1384089 0.99767873
T   max/avg/min : 353.68323 311.22014 293.68658
P   max/avg/min : 101324.91 101316.16 101307.4
Prg max/avg/min : 101325 101324.5 101322.01
U   max/avg/min : 0.83405065 0.25019763 0
Prg max-min : 2.9841181
 
Iteration Number = 586

DILUPBiCG:  Solving for Ux, Initial residual = 1.0758673e-05, Final residual = 2.7506452e-07, No Iterations 1
DILUPBiCG:  Solving for Uy, Initial residual = 0.014835995, Final residual = 1.5833418e-06, No Iterations 3
DILUPBiCG:  Solving for Uz, Initial residual = 9.7491035e-06, Final residual = 3.836839e-07, No Iterations 1
DILUPBiCG:  Solving for h, Initial residual = 9.9096559e-07, Final residual = 9.9096559e-07, No Iterations 0
GAMG:  Solving for p_rgh, Initial residual = 4.7329578e-07, Final residual = 4.7329578e-07, No Iterations 0
time step continuity errors : sum local = 5.5091425e-06, global = 2.4878215e-06, cumulative = 0.00047411205
ExecutionTime = 22.96 s  ClockTime = 23 s
Inflow      : 4.1123082e-05 [kg/s]
Outflow     : 4.1125157e-05 [kg/s]
EnergyInflow  : 12.150316 [W]
EnergyOutflow : 12.313241 [W]
EnergyBalance : 0.16292503 [W]
rho max/avg/min : 1.2016458 1.1384089 0.99767873
T   max/avg/min : 353.68323 311.22014 293.68658
P   max/avg/min : 101324.91 101316.16 101307.4
Prg max/avg/min : 101325 101324.5 101322.01
U   max/avg/min : 0.83405563 0.25020104 0
Prg max-min : 2.9841181
 

SIMPLE solution converged in 586 iterations

End

