/*---------------------------------------------------------------------------*\
| =========                 |                                                 |
| \\      /  F ield         | OpenFOAM: The Open Source CFD Toolbox           |
|  \\    /   O peration     | Version:  4.0                                   |
|   \\  /    A nd           | Web:      www.OpenFOAM.org                      |
|    \\/     M anipulation  |                                                 |
\*---------------------------------------------------------------------------*/
Build  : 4.0-665f1db4c1f1
Exec   : pupoBuoyantSimpleFoam
Date   : Sep 15 2016
Time   : 20:52:58
Host   : "FAB2000"
PID    : 15162
Case   : /home/pedro/Documents/ThesisProject/OpenFoam/validation7rod/justfluid
nProcs : 1
sigFpe : Enabling floating point exception trapping (FOAM_SIGFPE).
fileModificationChecking : Monitoring run-time modified files using timeStampMaster
allowSystemOperations : Allowing user-supplied system call operations

// * * * * * * * * * * * * * * * * * * * * * * * * * * * * * * * * * * * * * //
Create time

Create mesh for time = 0


SIMPLE: convergence criteria
    field p_rgh	 tolerance 1e-06
    field Uz	 tolerance 1e-06
    field h	 tolerance 1e-06

Reading thermophysical properties

Selecting thermodynamics package 
{
    type            heRhoThermo;
    mixture         pureMixture;
    transport       sutherland;
    thermo          hConst;
    equationOfState perfectGas;
    specie          specie;
    energy          sensibleEnthalpy;
}


Reading g

Reading hRef
Calculating field g.h

Selecting turbulence model type laminar
No MRF models present

Selecting radiationModel none
 
rho max/avg/min : 1.1764117 1.1763727 1.1762783
T   max/avg/min : 300 300 300
P   max/avg/min : 101325 101321.64 101313.51
Prg max/avg/min : 101325 101325 101325
U   max/avg/min : 0 0 0
 
No finite volume options present


Starting Iteration loop

Iteration Number = 1

DILUPBiCG:  Solving for Ux, Initial residual = 0.99999998, Final residual = 1.918381e-05, No Iterations 2
DILUPBiCG:  Solving for Uy, Initial residual = 0.99999999, Final residual = 1.567518e-05, No Iterations 2
DILUPBiCG:  Solving for Uz, Initial residual = 1, Final residual = 1.1813759e-05, No Iterations 2
DILUPBiCG:  Solving for h, Initial residual = 1, Final residual = 0.00029635253, No Iterations 2
GAMG:  Solving for p_rgh, Initial residual = 0.99703074, Final residual = 0.00069005249, No Iterations 3
time step continuity errors : sum local = 0.0001193371, global = -9.7617683e-08, cumulative = -9.7617683e-08
ExecutionTime = 3.42 s  ClockTime = 4 s
Inflow      : -2.1900653e-12 [kg/s]
Outflow     : -1.4732498e-11 [kg/s]
EnergyInflow  : -6.6096172e-07 [W]
EnergyOutflow : -4.4462678e-06 [W]
rho max/avg/min : 1.1764117 1.1762157 1.1736489
T   max/avg/min : 300.67211 300.04009 300
P   max/avg/min : 101325 101321.64 101313.51
Prg max/avg/min : 101325 101325 101324.97
U   max/avg/min : 6.9759758e-07 2.7609434e-09 -4.1669115e-07
Prg max-min : 0.026662262
 
Iteration Number = 2

DILUPBiCG:  Solving for Ux, Initial residual = 0.21002043, Final residual = 8.7994893e-05, No Iterations 1
DILUPBiCG:  Solving for Uy, Initial residual = 0.19571778, Final residual = 8.7036596e-05, No Iterations 1
DILUPBiCG:  Solving for Uz, Initial residual = 0.39562501, Final residual = 1.9359885e-06, No Iterations 2
DILUPBiCG:  Solving for h, Initial residual = 0.27413195, Final residual = 8.0705477e-05, No Iterations 2
GAMG:  Solving for p_rgh, Initial residual = 0.15699109, Final residual = 9.4208581e-05, No Iterations 4
time step continuity errors : sum local = 4.9416147e-05, global = 5.3841776e-08, cumulative = -4.3775907e-08
ExecutionTime = 4.92 s  ClockTime = 5 s
Inflow      : -7.35216e-12 [kg/s]
Outflow     : -4.3428603e-13 [kg/s]
EnergyInflow  : -2.2188819e-06 [W]
EnergyOutflow : -1.3106752e-07 [W]
rho max/avg/min : 1.1764117 1.176059 1.1721565
T   max/avg/min : 301.05503 300.08013 300
P   max/avg/min : 101325 101321.64 101313.51
Prg max/avg/min : 101325 101325 101324.96
U   max/avg/min : 1.114875e-06 9.3284296e-09 -8.9591476e-07
Prg max-min : 0.041006621
 
Iteration Number = 3

DILUPBiCG:  Solving for Ux, Initial residual = 0.12595085, Final residual = 0.00010721415, No Iterations 1
DILUPBiCG:  Solving for Uy, Initial residual = 0.11821984, Final residual = 2.5337277e-07, No Iterations 2
DILUPBiCG:  Solving for Uz, Initial residual = 0.28628384, Final residual = 1.1898572e-06, No Iterations 2
DILUPBiCG:  Solving for h, Initial residual = 0.18175172, Final residual = 7.187727e-05, No Iterations 2
GAMG:  Solving for p_rgh, Initial residual = 0.092575283, Final residual = 8.8979115e-05, No Iterations 4
time step continuity errors : sum local = 5.7331031e-05, global = 1.6167395e-07, cumulative = 1.1789804e-07
ExecutionTime = 6.46 s  ClockTime = 7 s
Inflow      : -1.5386322e-11 [kg/s]
Outflow     : 5.3863958e-12 [kg/s]
EnergyInflow  : -4.643592e-06 [W]
EnergyOutflow : 1.6258344e-06 [W]
rho max/avg/min : 1.1764117 1.1758969 1.1710005
T   max/avg/min : 301.35222 300.12161 300
P   max/avg/min : 101325 101321.64 101313.51
Prg max/avg/min : 101325 101325 101324.95
U   max/avg/min : 9.709447e-07 2.156458e-08 -1.6270823e-06
Prg max-min : 0.05245361
 
Iteration Number = 4

DILUPBiCG:  Solving for Ux, Initial residual = 0.075753654, Final residual = 7.4319751e-05, No Iterations 1
DILUPBiCG:  Solving for Uy, Initial residual = 0.072304274, Final residual = 1.6552513e-07, No Iterations 2
DILUPBiCG:  Solving for Uz, Initial residual = 0.2343102, Final residual = 1.0592037e-06, No Iterations 2
DILUPBiCG:  Solving for h, Initial residual = 0.1347181, Final residual = 7.3911807e-05, No Iterations 2
GAMG:  Solving for p_rgh, Initial residual = 0.083609973, Final residual = 6.2353702e-05, No Iterations 5
time step continuity errors : sum local = 3.7793815e-05, global = 2.2015226e-07, cumulative = 3.380503e-07
ExecutionTime = 8.04 s  ClockTime = 8 s
Inflow      : -2.559097e-11 [kg/s]
Outflow     : 2.6953472e-12 [kg/s]
EnergyInflow  : -7.7233548e-06 [W]
EnergyOutflow : 8.1409874e-07 [W]
rho max/avg/min : 1.1764117 1.1757289 1.170002
T   max/avg/min : 301.6094 300.16462 300
P   max/avg/min : 101325 101321.64 101313.51
Prg max/avg/min : 101325 101325 101324.94
U   max/avg/min : 1.0984866e-06 4.4559902e-08 -2.5559035e-06
Prg max-min : 0.062227039
 
Iteration Number = 5

DILUPBiCG:  Solving for Ux, Initial residual = 0.078022462, Final residual = 1.948415e-07, No Iterations 2
DILUPBiCG:  Solving for Uy, Initial residual = 0.073950398, Final residual = 1.7969428e-07, No Iterations 2
DILUPBiCG:  Solving for Uz, Initial residual = 0.19956376, Final residual = 9.5520961e-07, No Iterations 2
DILUPBiCG:  Solving for h, Initial residual = 0.10798221, Final residual = 7.9010738e-05, No Iterations 2
GAMG:  Solving for p_rgh, Initial residual = 0.075734483, Final residual = 4.9935745e-05, No Iterations 5
time step continuity errors : sum local = 3.1085966e-05, global = 3.0778642e-07, cumulative = 6.4583673e-07
ExecutionTime = 9.65 s  ClockTime = 10 s
Inflow      : -4.154113e-11 [kg/s]
Outflow     : -1.9951151e-12 [kg/s]
EnergyInflow  : -1.2537113e-05 [W]
EnergyOutflow : -6.0067342e-07 [W]
rho max/avg/min : 1.1764117 1.1755552 1.1691003
T   max/avg/min : 301.84202 300.20909 300
P   max/avg/min : 101325 101321.64 101313.51
Prg max/avg/min : 101325 101325 101324.93
U   max/avg/min : 1.6218606e-06 7.7605409e-08 -3.760762e-06
Prg max-min : 0.071015657
 
Iteration Number = 6

DILUPBiCG:  Solving for Ux, Initial residual = 0.071633354, Final residual = 1.9699851e-07, No Iterations 2
DILUPBiCG:  Solving for Uy, Initial residual = 0.069423115, Final residual = 1.420436e-07, No Iterations 2
DILUPBiCG:  Solving for Uz, Initial residual = 0.17252768, Final residual = 8.8314585e-07, No Iterations 2
DILUPBiCG:  Solving for h, Initial residual = 0.090684062, Final residual = 8.5019943e-05, No Iterations 2
GAMG:  Solving for p_rgh, Initial residual = 0.071799789, Final residual = 3.3042985e-05, No Iterations 6
time step continuity errors : sum local = 2.1099042e-05, global = 3.5216414e-07, cumulative = 9.9800087e-07
ExecutionTime = 11.36 s  ClockTime = 12 s
Inflow      : -5.8481464e-11 [kg/s]
Outflow     : -1.3233567e-11 [kg/s]
EnergyInflow  : -1.7649706e-05 [W]
EnergyOutflow : -3.9911027e-06 [W]
rho max/avg/min : 1.1764117 1.1753763 1.1682667
T   max/avg/min : 302.05742 300.25495 300
P   max/avg/min : 101325 101321.64 101313.51
Prg max/avg/min : 101325 101325 101324.92
U   max/avg/min : 2.2306696e-06 1.29025e-07 -5.2089261e-06
Prg max-min : 0.079070235
 
Iteration Number = 7

DILUPBiCG:  Solving for Ux, Initial residual = 0.070517071, Final residual = 2.6393795e-07, No Iterations 2
DILUPBiCG:  Solving for Uy, Initial residual = 0.070461178, Final residual = 2.3611045e-07, No Iterations 2
DILUPBiCG:  Solving for Uz, Initial residual = 0.15381176, Final residual = 8.1421614e-07, No Iterations 2
DILUPBiCG:  Solving for h, Initial residual = 0.078523894, Final residual = 1.1439061e-05, No Iterations 3
GAMG:  Solving for p_rgh, Initial residual = 0.069489315, Final residual = 4.0029575e-05, No Iterations 6
time step continuity errors : sum local = 2.6358044e-05, global = 4.2032473e-07, cumulative = 1.4183256e-06
ExecutionTime = 13.1 s  ClockTime = 13 s
Inflow      : -7.7070179e-11 [kg/s]
Outflow     : -2.3064652e-11 [kg/s]
EnergyInflow  : -2.325978e-05 [W]
EnergyOutflow : -6.955949e-06 [W]
rho max/avg/min : 1.1764117 1.175192 1.1674836
T   max/avg/min : 302.26003 300.30221 300
P   max/avg/min : 101325 101321.64 101313.51
Prg max/avg/min : 101325 101325 101324.91
U   max/avg/min : 2.9714958e-06 2.0408523e-07 -6.6001627e-06
Prg max-min : 0.086622793
 
Iteration Number = 8

DILUPBiCG:  Solving for Ux, Initial residual = 0.067908518, Final residual = 3.4036158e-07, No Iterations 2
DILUPBiCG:  Solving for Uy, Initial residual = 0.0673328, Final residual = 2.2121652e-07, No Iterations 2
DILUPBiCG:  Solving for Uz, Initial residual = 0.13922495, Final residual = 7.7928583e-07, No Iterations 2
DILUPBiCG:  Solving for h, Initial residual = 0.069498325, Final residual = 1.2550448e-05, No Iterations 3
GAMG:  Solving for p_rgh, Initial residual = 0.068630167, Final residual = 3.0377656e-05, No Iterations 6
time step continuity errors : sum local = 2.0871755e-05, global = 3.8440281e-07, cumulative = 1.8027284e-06
ExecutionTime = 14.8 s  ClockTime = 15 s
Inflow      : -8.2568235e-11 [kg/s]
Outflow     : -3.3178144e-11 [kg/s]
EnergyInflow  : -2.4919093e-05 [W]
EnergyOutflow : -1.0004916e-05 [W]
rho max/avg/min : 1.1764117 1.175003 1.1667408
T   max/avg/min : 302.45248 300.35069 300
P   max/avg/min : 101325 101321.64 101313.51
Prg max/avg/min : 101325 101325 101324.91
U   max/avg/min : 3.8164901e-06 3.146418e-07 -8.9085608e-06
Prg max-min : 0.093809506
 
Iteration Number = 9

DILUPBiCG:  Solving for Ux, Initial residual = 0.065642407, Final residual = 4.0867294e-07, No Iterations 2
DILUPBiCG:  Solving for Uy, Initial residual = 0.069176738, Final residual = 3.0108089e-07, No Iterations 2
DILUPBiCG:  Solving for Uz, Initial residual = 0.12810073, Final residual = 7.3258193e-07, No Iterations 2
DILUPBiCG:  Solving for h, Initial residual = 0.06251242, Final residual = 1.3637821e-05, No Iterations 3
GAMG:  Solving for p_rgh, Initial residual = 0.068364147, Final residual = 3.5608177e-05, No Iterations 6
time step continuity errors : sum local = 2.571457e-05, global = 4.6756024e-07, cumulative = 2.2702886e-06
ExecutionTime = 16.45 s  ClockTime = 17 s
Inflow      : -1.1071132e-10 [kg/s]
Outflow     : -5.0636725e-11 [kg/s]
EnergyInflow  : -3.3412676e-05 [W]
EnergyOutflow : -1.5269094e-05 [W]
rho max/avg/min : 1.1764117 1.1748096 1.1660309
T   max/avg/min : 302.63664 300.40033 300
P   max/avg/min : 101325 101321.64 101313.51
Prg max/avg/min : 101325 101325 101324.9
U   max/avg/min : 4.8106836e-06 4.4990122e-07 -1.1742721e-05
Prg max-min : 0.10068423
 
Iteration Number = 10

DILUPBiCG:  Solving for Ux, Initial residual = 0.064636786, Final residual = 4.7378947e-07, No Iterations 2
DILUPBiCG:  Solving for Uy, Initial residual = 0.066729808, Final residual = 3.5132351e-07, No Iterations 2
DILUPBiCG:  Solving for Uz, Initial residual = 0.11878012, Final residual = 7.3660806e-07, No Iterations 2
DILUPBiCG:  Solving for h, Initial residual = 0.056944499, Final residual = 1.4564664e-05, No Iterations 3
GAMG:  Solving for p_rgh, Initial residual = 0.068402115, Final residual = 3.4988629e-05, No Iterations 6
time step continuity errors : sum local = 2.6806918e-05, global = 3.1529815e-07, cumulative = 2.5855868e-06
ExecutionTime = 18.16 s  ClockTime = 18 s
Inflow      : -1.1014144e-10 [kg/s]
Outflow     : -6.9630282e-11 [kg/s]
EnergyInflow  : -3.3240687e-05 [W]
EnergyOutflow : -2.099488e-05 [W]
rho max/avg/min : 1.1764117 1.1746121 1.1653485
T   max/avg/min : 302.81386 300.45104 300
P   max/avg/min : 101325 101321.64 101313.51
Prg max/avg/min : 101325 101325 101324.89
U   max/avg/min : 5.9873813e-06 6.3638045e-07 -1.4741989e-05
Prg max-min : 0.10738572
 
Iteration Number = 11

DILUPBiCG:  Solving for Ux, Initial residual = 0.0630638, Final residual = 5.3173341e-07, No Iterations 2
DILUPBiCG:  Solving for Uy, Initial residual = 0.067741525, Final residual = 4.2553147e-07, No Iterations 2
DILUPBiCG:  Solving for Uz, Initial residual = 0.11101418, Final residual = 6.8393356e-07, No Iterations 2
DILUPBiCG:  Solving for h, Initial residual = 0.052393559, Final residual = 1.5506066e-05, No Iterations 3
GAMG:  Solving for p_rgh, Initial residual = 0.068458894, Final residual = 3.3641912e-05, No Iterations 6
time step continuity errors : sum local = 2.7474099e-05, global = 4.3635325e-07, cumulative = 3.02194e-06
ExecutionTime = 19.89 s  ClockTime = 20 s
Inflow      : -1.6472295e-10 [kg/s]
Outflow     : -1.08658e-10 [kg/s]
EnergyInflow  : -4.9713387e-05 [W]
EnergyOutflow : -3.2764344e-05 [W]
rho max/avg/min : 1.1764117 1.1744107 1.1646898
T   max/avg/min : 302.98515 300.50278 300
P   max/avg/min : 101325 101321.64 101313.51
Prg max/avg/min : 101325 101324.99 101324.89
U   max/avg/min : 7.3516487e-06 8.415919e-07 -1.7892873e-05
Prg max-min : 0.11373677
 
Iteration Number = 12

DILUPBiCG:  Solving for Ux, Initial residual = 0.062721638, Final residual = 5.7852266e-07, No Iterations 2
DILUPBiCG:  Solving for Uy, Initial residual = 0.064785651, Final residual = 4.5634698e-07, No Iterations 2
DILUPBiCG:  Solving for Uz, Initial residual = 0.10415926, Final residual = 7.1463405e-07, No Iterations 2
DILUPBiCG:  Solving for h, Initial residual = 0.0485981, Final residual = 1.6330282e-05, No Iterations 3
GAMG:  Solving for p_rgh, Initial residual = 0.068731401, Final residual = 3.4821879e-05, No Iterations 6
time step continuity errors : sum local = 3.0512172e-05, global = 2.4892639e-07, cumulative = 3.2708664e-06
ExecutionTime = 21.72 s  ClockTime = 22 s
Inflow      : -1.8176444e-10 [kg/s]
Outflow     : -1.4978107e-10 [kg/s]
EnergyInflow  : -5.4856507e-05 [W]
EnergyOutflow : -4.5163987e-05 [W]
rho max/avg/min : 1.1764117 1.1742057 1.1640515
T   max/avg/min : 303.15131 300.55547 300
P   max/avg/min : 101325 101321.64 101313.51
Prg max/avg/min : 101325 101324.99 101324.88
U   max/avg/min : 8.9318837e-06 1.0970292e-06 -2.1322912e-05
Prg max-min : 0.12004561
 
Iteration Number = 13

DILUPBiCG:  Solving for Ux, Initial residual = 0.060791459, Final residual = 6.1102679e-07, No Iterations 2
DILUPBiCG:  Solving for Uy, Initial residual = 0.065185028, Final residual = 5.0168346e-07, No Iterations 2
DILUPBiCG:  Solving for Uz, Initial residual = 0.098000151, Final residual = 6.6477767e-07, No Iterations 2
DILUPBiCG:  Solving for h, Initial residual = 0.045387889, Final residual = 1.7141398e-05, No Iterations 3
GAMG:  Solving for p_rgh, Initial residual = 0.068046601, Final residual = 3.8046142e-05, No Iterations 6
time step continuity errors : sum local = 3.5832257e-05, global = 4.2854598e-07, cumulative = 3.6994124e-06
ExecutionTime = 23.49 s  ClockTime = 24 s
Inflow      : -2.6749832e-10 [kg/s]
Outflow     : -2.1243648e-10 [kg/s]
EnergyInflow  : -8.0730994e-05 [W]
EnergyOutflow : -6.4058207e-05 [W]
rho max/avg/min : 1.1764117 1.1739973 1.1634313
T   max/avg/min : 303.31294 300.60906 300
P   max/avg/min : 101325 101321.64 101313.51
Prg max/avg/min : 101325 101324.99 101324.88
U   max/avg/min : 1.0782574e-05 1.3687669e-06 -2.5263508e-05
Prg max-min : 0.12606205
 
Iteration Number = 14

DILUPBiCG:  Solving for Ux, Initial residual = 0.060595293, Final residual = 6.5567931e-07, No Iterations 2
DILUPBiCG:  Solving for Uy, Initial residual = 0.062744015, Final residual = 5.4194082e-07, No Iterations 2
DILUPBiCG:  Solving for Uz, Initial residual = 0.093061954, Final residual = 7.0513436e-07, No Iterations 2
DILUPBiCG:  Solving for h, Initial residual = 0.042632673, Final residual = 1.7830316e-05, No Iterations 3
GAMG:  Solving for p_rgh, Initial residual = 0.068132604, Final residual = 3.1000762e-05, No Iterations 6
time step continuity errors : sum local = 3.1572589e-05, global = 3.8807686e-07, cumulative = 4.0874893e-06
ExecutionTime = 25.16 s  ClockTime = 25 s
Inflow      : -3.3360119e-10 [kg/s]
Outflow     : -2.8373904e-10 [kg/s]
EnergyInflow  : -0.00010068084 [W]
EnergyOutflow : -8.555925e-05 [W]
rho max/avg/min : 1.1764117 1.1737857 1.1628272
T   max/avg/min : 303.47055 300.6635 300
P   max/avg/min : 101325 101321.64 101313.51
Prg max/avg/min : 101325 101324.99 101324.87
U   max/avg/min : 1.2919174e-05 1.667632e-06 -3.0084597e-05
Prg max-min : 0.13201043
 
Iteration Number = 15

DILUPBiCG:  Solving for Ux, Initial residual = 0.058701845, Final residual = 6.6841255e-07, No Iterations 2
DILUPBiCG:  Solving for Uy, Initial residual = 0.062491474, Final residual = 5.436948e-07, No Iterations 2
DILUPBiCG:  Solving for Uz, Initial residual = 0.087819616, Final residual = 6.6808475e-07, No Iterations 2
DILUPBiCG:  Solving for h, Initial residual = 0.040238907, Final residual = 1.8518535e-05, No Iterations 3
GAMG:  Solving for p_rgh, Initial residual = 0.066854644, Final residual = 4.7102948e-05, No Iterations 6
time step continuity errors : sum local = 5.1856084e-05, global = 4.2357037e-07, cumulative = 4.5110597e-06
ExecutionTime = 26.81 s  ClockTime = 27 s
Inflow      : -4.3891191e-10 [kg/s]
Outflow     : -3.8448936e-10 [kg/s]
EnergyInflow  : -0.00013246361 [W]
EnergyOutflow : -0.00011594208 [W]
rho max/avg/min : 1.1764117 1.173571 1.1622375
T   max/avg/min : 303.62455 300.71875 300
P   max/avg/min : 101325 101321.64 101313.52
Prg max/avg/min : 101325 101324.99 101324.87
U   max/avg/min : 1.5271168e-05 1.985892e-06 -3.5462466e-05
Prg max-min : 0.1377316
 
Iteration Number = 16

DILUPBiCG:  Solving for Ux, Initial residual = 0.059028271, Final residual = 7.2578492e-07, No Iterations 2
DILUPBiCG:  Solving for Uy, Initial residual = 0.060048805, Final residual = 5.8806461e-07, No Iterations 2
DILUPBiCG:  Solving for Uz, Initial residual = 0.083815865, Final residual = 6.8498364e-07, No Iterations 2
DILUPBiCG:  Solving for h, Initial residual = 0.03813963, Final residual = 1.911046e-05, No Iterations 3
GAMG:  Solving for p_rgh, Initial residual = 0.063860349, Final residual = 2.7581341e-05, No Iterations 6
time step continuity errors : sum local = 3.2920373e-05, global = 3.9520736e-07, cumulative = 4.906267e-06
ExecutionTime = 28.45 s  ClockTime = 29 s
Inflow      : -5.3936435e-10 [kg/s]
Outflow     : -4.8858603e-10 [kg/s]
EnergyInflow  : -0.00016278016 [W]
EnergyOutflow : -0.00014733151 [W]
rho max/avg/min : 1.1764117 1.1733536 1.1616609
T   max/avg/min : 303.77529 300.77474 300
P   max/avg/min : 101325 101321.64 101313.52
Prg max/avg/min : 101325 101324.99 101324.86
U   max/avg/min : 1.7948363e-05 2.3232357e-06 -4.1759601e-05
Prg max-min : 0.14336812
 
Iteration Number = 17

DILUPBiCG:  Solving for Ux, Initial residual = 0.056558515, Final residual = 7.4473892e-07, No Iterations 2
DILUPBiCG:  Solving for Uy, Initial residual = 0.059425548, Final residual = 5.775578e-07, No Iterations 2
DILUPBiCG:  Solving for Uz, Initial residual = 0.079188512, Final residual = 6.5172993e-07, No Iterations 2
DILUPBiCG:  Solving for h, Initial residual = 0.036280535, Final residual = 1.9648668e-05, No Iterations 3
GAMG:  Solving for p_rgh, Initial residual = 0.061683122, Final residual = 4.8399765e-05, No Iterations 6
time step continuity errors : sum local = 6.2635716e-05, global = 3.5459394e-07, cumulative = 5.260861e-06
ExecutionTime = 30.12 s  ClockTime = 30 s
Inflow      : -6.6287162e-10 [kg/s]
Outflow     : -6.1731153e-10 [kg/s]
EnergyInflow  : -0.00020005465 [W]
EnergyOutflow : -0.00018614554 [W]
rho max/avg/min : 1.1764117 1.1731334 1.1610962
T   max/avg/min : 303.92307 300.83144 300
P   max/avg/min : 101325 101321.64 101313.52
Prg max/avg/min : 101325.01 101324.99 101324.86
U   max/avg/min : 2.0801997e-05 2.6822293e-06 -4.8747361e-05
Prg max-min : 0.14886949
 
Iteration Number = 18

DILUPBiCG:  Solving for Ux, Initial residual = 0.057645612, Final residual = 7.521753e-07, No Iterations 2
DILUPBiCG:  Solving for Uy, Initial residual = 0.056752951, Final residual = 5.6984562e-07, No Iterations 2
DILUPBiCG:  Solving for Uz, Initial residual = 0.075768196, Final residual = 6.5677487e-07, No Iterations 2
DILUPBiCG:  Solving for h, Initial residual = 0.034626277, Final residual = 2.0125151e-05, No Iterations 3
GAMG:  Solving for p_rgh, Initial residual = 0.05933425, Final residual = 2.4981946e-05, No Iterations 6
time step continuity errors : sum local = 3.5167761e-05, global = 2.013165e-07, cumulative = 5.4621775e-06
ExecutionTime = 31.84 s  ClockTime = 32 s
Inflow      : -7.9459708e-10 [kg/s]
Outflow     : -7.6873088e-10 [kg/s]
EnergyInflow  : -0.0002398094 [W]
EnergyOutflow : -0.00023180715 [W]
rho max/avg/min : 1.1764117 1.1729108 1.1605425
T   max/avg/min : 304.06812 300.88881 300
P   max/avg/min : 101325 101321.64 101313.52
Prg max/avg/min : 101325.01 101324.99 101324.85
U   max/avg/min : 2.3940276e-05 3.053353e-06 -5.7131787e-05
Prg max-min : 0.154275
 
Iteration Number = 19

DILUPBiCG:  Solving for Ux, Initial residual = 0.05460291, Final residual = 8.1498975e-07, No Iterations 2
DILUPBiCG:  Solving for Uy, Initial residual = 0.056701013, Final residual = 6.173573e-07, No Iterations 2
DILUPBiCG:  Solving for Uz, Initial residual = 0.071616608, Final residual = 6.2505118e-07, No Iterations 2
DILUPBiCG:  Solving for h, Initial residual = 0.033141524, Final residual = 2.0561979e-05, No Iterations 3
GAMG:  Solving for p_rgh, Initial residual = 0.05805845, Final residual = 4.567705e-05, No Iterations 6
time step continuity errors : sum local = 6.9889945e-05, global = -2.2580431e-08, cumulative = 5.439597e-06
ExecutionTime = 33.66 s  ClockTime = 34 s
Inflow      : -9.4947744e-10 [kg/s]
Outflow     : -9.523787e-10 [kg/s]
EnergyInflow  : -0.00028655229 [W]
EnergyOutflow : -0.00028718193 [W]
rho max/avg/min : 1.1764117 1.1726859 1.1599989
T   max/avg/min : 304.21067 300.94681 300
P   max/avg/min : 101325 101321.64 101313.52
Prg max/avg/min : 101325.01 101324.99 101324.85
U   max/avg/min : 2.7384433e-05 3.4339758e-06 -6.6422471e-05
Prg max-min : 0.15956352
 
Iteration Number = 20

DILUPBiCG:  Solving for Ux, Initial residual = 0.056106778, Final residual = 7.9859328e-07, No Iterations 2
DILUPBiCG:  Solving for Uy, Initial residual = 0.053462357, Final residual = 5.5752916e-07, No Iterations 2
DILUPBiCG:  Solving for Uz, Initial residual = 0.068533379, Final residual = 6.2811803e-07, No Iterations 2
DILUPBiCG:  Solving for h, Initial residual = 0.03179967, Final residual = 2.0936973e-05, No Iterations 3
GAMG:  Solving for p_rgh, Initial residual = 0.055081372, Final residual = 2.3106925e-05, No Iterations 6
time step continuity errors : sum local = 3.842273e-05, global = -2.9099127e-07, cumulative = 5.1486058e-06
ExecutionTime = 35.35 s  ClockTime = 36 s
Inflow      : -1.1214373e-09 [kg/s]
Outflow     : -1.1588253e-09 [kg/s]
EnergyInflow  : -0.00033844977 [W]
EnergyOutflow : -0.00034943752 [W]
rho max/avg/min : 1.1764117 1.1724587 1.1594645
T   max/avg/min : 304.35092 301.0054 300
P   max/avg/min : 101325 101321.64 101313.52
Prg max/avg/min : 101325.01 101324.99 101324.84
U   max/avg/min : 3.099491e-05 3.8142396e-06 -7.6848306e-05
Prg max-min : 0.16479448
 
Iteration Number = 21

DILUPBiCG:  Solving for Ux, Initial residual = 0.052178155, Final residual = 8.7624836e-07, No Iterations 2
DILUPBiCG:  Solving for Uy, Initial residual = 0.054007273, Final residual = 6.4202156e-07, No Iterations 2
DILUPBiCG:  Solving for Uz, Initial residual = 0.064761741, Final residual = 5.95469e-07, No Iterations 2
DILUPBiCG:  Solving for h, Initial residual = 0.030580473, Final residual = 2.1266517e-05, No Iterations 3
GAMG:  Solving for p_rgh, Initial residual = 0.052973855, Final residual = 4.2156477e-05, No Iterations 6
time step continuity errors : sum local = 7.6159745e-05, global = -6.7837756e-07, cumulative = 4.4702282e-06
ExecutionTime = 36.99 s  ClockTime = 37 s
Inflow      : -1.3257403e-09 [kg/s]
Outflow     : -1.4129018e-09 [kg/s]
EnergyInflow  : -0.00040010842 [W]
EnergyOutflow : -0.00042605473 [W]
rho max/avg/min : 1.1764117 1.1722295 1.1589389
T   max/avg/min : 304.48902 301.06454 300
P   max/avg/min : 101325 101321.64 101313.52
Prg max/avg/min : 101325.01 101324.99 101324.84
U   max/avg/min : 3.4923739e-05 4.1817185e-06 -8.872768e-05
Prg max-min : 0.16987854
 
Iteration Number = 22

DILUPBiCG:  Solving for Ux, Initial residual = 0.053846687, Final residual = 8.3254925e-07, No Iterations 2
DILUPBiCG:  Solving for Uy, Initial residual = 0.050596495, Final residual = 5.3045026e-07, No Iterations 2
DILUPBiCG:  Solving for Uz, Initial residual = 0.062020324, Final residual = 6.0255744e-07, No Iterations 2
DILUPBiCG:  Solving for h, Initial residual = 0.029468696, Final residual = 2.155327e-05, No Iterations 3
GAMG:  Solving for p_rgh, Initial residual = 0.051696071, Final residual = 2.2630392e-05, No Iterations 6
time step continuity errors : sum local = 4.397696e-05, global = -9.3950141e-07, cumulative = 3.5307268e-06
ExecutionTime = 38.62 s  ClockTime = 39 s
Inflow      : -1.5639972e-09 [kg/s]
Outflow     : -1.6847092e-09 [kg/s]
EnergyInflow  : -0.00047201435 [W]
EnergyOutflow : -0.00050802239 [W]
rho max/avg/min : 1.1764117 1.1719984 1.1584212
T   max/avg/min : 304.62514 301.12421 300
P   max/avg/min : 101325 101321.64 101313.52
Prg max/avg/min : 101325.01 101324.99 101324.84
U   max/avg/min : 3.8843682e-05 4.5218234e-06 -0.00010436358
Prg max-min : 0.17489485
 
Iteration Number = 23

DILUPBiCG:  Solving for Ux, Initial residual = 0.050194605, Final residual = 8.84542e-07, No Iterations 2
DILUPBiCG:  Solving for Uy, Initial residual = 0.051186153, Final residual = 6.5689825e-07, No Iterations 2
DILUPBiCG:  Solving for Uz, Initial residual = 0.058716715, Final residual = 5.7280506e-07, No Iterations 2
DILUPBiCG:  Solving for h, Initial residual = 0.028449987, Final residual = 2.1788364e-05, No Iterations 3
GAMG:  Solving for p_rgh, Initial residual = 0.050097087, Final residual = 3.8924757e-05, No Iterations 6
time step continuity errors : sum local = 8.1606652e-05, global = -1.3595517e-06, cumulative = 2.1711751e-06
ExecutionTime = 40.32 s  ClockTime = 41 s
Inflow      : -1.8415161e-09 [kg/s]
Outflow     : -2.0161984e-09 [kg/s]
EnergyInflow  : -0.00055576955 [W]
EnergyOutflow : -0.0006079854 [W]
rho max/avg/min : 1.1764117 1.1717656 1.1579112
T   max/avg/min : 304.7594 301.18436 300
P   max/avg/min : 101325 101321.64 101313.52
Prg max/avg/min : 101325.01 101324.99 101324.83
U   max/avg/min : 4.331904e-05 4.8193935e-06 -0.00012138347
Prg max-min : 0.17998481
 
Iteration Number = 24

DILUPBiCG:  Solving for Ux, Initial residual = 0.051594854, Final residual = 8.4123959e-07, No Iterations 2
DILUPBiCG:  Solving for Uy, Initial residual = 0.047415317, Final residual = 5.0562372e-07, No Iterations 2
DILUPBiCG:  Solving for Uz, Initial residual = 0.056243398, Final residual = 5.802274e-07, No Iterations 2
DILUPBiCG:  Solving for h, Initial residual = 0.02751335, Final residual = 2.2012188e-05, No Iterations 3
GAMG:  Solving for p_rgh, Initial residual = 0.048342044, Final residual = 2.5928839e-05, No Iterations 6
time step continuity errors : sum local = 5.8025135e-05, global = -4.3968311e-07, cumulative = 1.731492e-06
ExecutionTime = 42.01 s  ClockTime = 42 s
Inflow      : -2.3226967e-09 [kg/s]
Outflow     : -2.3791895e-09 [kg/s]
EnergyInflow  : -0.00070098986 [W]
EnergyOutflow : -0.00071745661 [W]
rho max/avg/min : 1.1764117 1.171531 1.1574081
T   max/avg/min : 304.89192 301.24498 300
P   max/avg/min : 101325 101321.65 101313.53
Prg max/avg/min : 101325.01 101324.99 101324.83
U   max/avg/min : 4.7818656e-05 4.9378658e-06 -0.00013993707
Prg max-min : 0.18473357
 
Iteration Number = 25

DILUPBiCG:  Solving for Ux, Initial residual = 0.048603232, Final residual = 8.9210789e-07, No Iterations 2
DILUPBiCG:  Solving for Uy, Initial residual = 0.050009154, Final residual = 6.7611768e-07, No Iterations 2
DILUPBiCG:  Solving for Uz, Initial residual = 0.053357415, Final residual = 5.9143714e-07, No Iterations 2
DILUPBiCG:  Solving for h, Initial residual = 0.026646767, Final residual = 2.2195889e-05, No Iterations 3
GAMG:  Solving for p_rgh, Initial residual = 0.046330958, Final residual = 3.7088675e-05, No Iterations 6
time step continuity errors : sum local = 8.8701871e-05, global = -1.347375e-06, cumulative = 3.8411698e-07
ExecutionTime = 43.65 s  ClockTime = 44 s
Inflow      : -2.6250343e-09 [kg/s]
Outflow     : -2.7981522e-09 [kg/s]
EnergyInflow  : -0.00079223537 [W]
EnergyOutflow : -0.00084379793 [W]
rho max/avg/min : 1.1764117 1.1712949 1.1569117
T   max/avg/min : 305.02283 301.30603 300
P   max/avg/min : 101325 101321.65 101313.53
Prg max/avg/min : 101325.02 101324.99 101324.83
U   max/avg/min : 5.2565376e-05 5.0332813e-06 -0.00016079663
Prg max-min : 0.1897104
 
Iteration Number = 26

DILUPBiCG:  Solving for Ux, Initial residual = 0.049811237, Final residual = 8.4855654e-07, No Iterations 2
DILUPBiCG:  Solving for Uy, Initial residual = 0.043251744, Final residual = 4.8603437e-07, No Iterations 2
DILUPBiCG:  Solving for Uz, Initial residual = 0.050963212, Final residual = 5.5481841e-07, No Iterations 2
DILUPBiCG:  Solving for h, Initial residual = 0.025842693, Final residual = 2.2327119e-05, No Iterations 3
GAMG:  Solving for p_rgh, Initial residual = 0.044335604, Final residual = 4.2044656e-05, No Iterations 5
time step continuity errors : sum local = 0.00010651281, global = -2.2157954e-06, cumulative = -1.8316784e-06
ExecutionTime = 45.21 s  ClockTime = 45 s
Inflow      : -2.9771555e-09 [kg/s]
Outflow     : -3.2618526e-09 [kg/s]
EnergyInflow  : -0.00089850554 [W]
EnergyOutflow : -0.00098364684 [W]
rho max/avg/min : 1.1764117 1.1710573 1.1564215
T   max/avg/min : 305.15221 301.36748 300
P   max/avg/min : 101325 101321.65 101313.53
Prg max/avg/min : 101325.02 101324.99 101324.82
U   max/avg/min : 5.7469019e-05 5.1171496e-06 -0.00018121838
Prg max-min : 0.19434424
 
Iteration Number = 27

DILUPBiCG:  Solving for Ux, Initial residual = 0.045373398, Final residual = 8.8963254e-07, No Iterations 2
DILUPBiCG:  Solving for Uy, Initial residual = 0.04813102, Final residual = 6.6846519e-07, No Iterations 2
DILUPBiCG:  Solving for Uz, Initial residual = 0.048328706, Final residual = 5.1901398e-07, No Iterations 2
DILUPBiCG:  Solving for h, Initial residual = 0.02509502, Final residual = 2.2284316e-05, No Iterations 3
GAMG:  Solving for p_rgh, Initial residual = 0.042945367, Final residual = 4.1460509e-05, No Iterations 6
time step continuity errors : sum local = 0.00011144872, global = -1.3001759e-06, cumulative = -3.1318542e-06
ExecutionTime = 46.87 s  ClockTime = 47 s
Inflow      : -3.5855185e-09 [kg/s]
Outflow     : -3.7525719e-09 [kg/s]
EnergyInflow  : -0.0010821095 [W]
EnergyOutflow : -0.0011316407 [W]
rho max/avg/min : 1.1764117 1.1708183 1.1559371
T   max/avg/min : 305.28016 301.42932 300
P   max/avg/min : 101325 101321.65 101313.53
Prg max/avg/min : 101325.02 101324.99 101324.82
U   max/avg/min : 6.2648474e-05 5.0110835e-06 -0.00020552201
Prg max-min : 0.19906512
 
Iteration Number = 28

DILUPBiCG:  Solving for Ux, Initial residual = 0.047524692, Final residual = 8.2240791e-07, No Iterations 2
DILUPBiCG:  Solving for Uy, Initial residual = 0.039661169, Final residual = 4.5987379e-07, No Iterations 2
DILUPBiCG:  Solving for Uz, Initial residual = 0.046734499, Final residual = 5.6354512e-07, No Iterations 2
DILUPBiCG:  Solving for h, Initial residual = 0.02439786, Final residual = 2.2532195e-05, No Iterations 3
GAMG:  Solving for p_rgh, Initial residual = 0.042691453, Final residual = 4.2110202e-05, No Iterations 5
time step continuity errors : sum local = 0.00011911132, global = -1.4482877e-06, cumulative = -4.580142e-06
ExecutionTime = 48.52 s  ClockTime = 49 s
Inflow      : -4.1271104e-09 [kg/s]
Outflow     : -4.313194e-09 [kg/s]
EnergyInflow  : -0.0012455619 [W]
EnergyOutflow : -0.0013007176 [W]
rho max/avg/min : 1.1764117 1.1705781 1.1554582
T   max/avg/min : 305.40677 301.49152 300.00001
P   max/avg/min : 101325 101321.65 101313.53
Prg max/avg/min : 101325.02 101324.99 101324.82
U   max/avg/min : 6.8027405e-05 4.842241e-06 -0.00023054069
Prg max-min : 0.20361424
 
Iteration Number = 29

DILUPBiCG:  Solving for Ux, Initial residual = 0.043030725, Final residual = 8.8938308e-07, No Iterations 2
DILUPBiCG:  Solving for Uy, Initial residual = 0.044640252, Final residual = 6.4602327e-07, No Iterations 2
DILUPBiCG:  Solving for Uz, Initial residual = 0.04417889, Final residual = 5.0516021e-07, No Iterations 2
DILUPBiCG:  Solving for h, Initial residual = 0.023746092, Final residual = 2.2431692e-05, No Iterations 3
GAMG:  Solving for p_rgh, Initial residual = 0.041410653, Final residual = 2.094329e-05, No Iterations 7
time step continuity errors : sum local = 6.2457604e-05, global = -2.4422504e-06, cumulative = -7.0223924e-06
ExecutionTime = 50.26 s  ClockTime = 51 s
Inflow      : -4.6055544e-09 [kg/s]
Outflow     : -4.9193475e-09 [kg/s]
EnergyInflow  : -0.0013899563 [W]
EnergyOutflow : -0.0014835222 [W]
rho max/avg/min : 1.1764117 1.1703367 1.1549846
T   max/avg/min : 305.53211 301.55405 300.00001
P   max/avg/min : 101325 101321.65 101313.54
Prg max/avg/min : 101325.02 101324.99 101324.82
U   max/avg/min : 7.3462012e-05 4.4518494e-06 -0.00025919447
Prg max-min : 0.20817142
 
Iteration Number = 30

DILUPBiCG:  Solving for Ux, Initial residual = 0.046071106, Final residual = 8.0287328e-07, No Iterations 2
DILUPBiCG:  Solving for Uy, Initial residual = 0.036400899, Final residual = 4.5233601e-07, No Iterations 2
DILUPBiCG:  Solving for Uz, Initial residual = 0.042728432, Final residual = 5.2205598e-07, No Iterations 2
DILUPBiCG:  Solving for h, Initial residual = 0.023134667, Final residual = 2.2491308e-05, No Iterations 3
GAMG:  Solving for p_rgh, Initial residual = 0.041322042, Final residual = 3.840358e-05, No Iterations 5
time step continuity errors : sum local = 0.00012004189, global = -2.8477278e-06, cumulative = -9.8701202e-06
ExecutionTime = 51.83 s  ClockTime = 52 s
Inflow      : -5.2402977e-09 [kg/s]
Outflow     : -5.6061888e-09 [kg/s]
EnergyInflow  : -0.0015815219 [W]
EnergyOutflow : -0.0016906828 [W]
rho max/avg/min : 1.1764117 1.1700942 1.1545159
T   max/avg/min : 305.65626 301.61689 300.00001
P   max/avg/min : 101325 101321.65 101313.54
Prg max/avg/min : 101325.03 101324.99 101324.81
U   max/avg/min : 7.9102134e-05 3.9302644e-06 -0.00028938988
Prg max-min : 0.21275281
 
Iteration Number = 31

DILUPBiCG:  Solving for Ux, Initial residual = 0.041990088, Final residual = 8.6561308e-07, No Iterations 2
DILUPBiCG:  Solving for Uy, Initial residual = 0.042146198, Final residual = 6.083669e-07, No Iterations 2
DILUPBiCG:  Solving for Uz, Initial residual = 0.040408068, Final residual = 4.8846518e-07, No Iterations 2
DILUPBiCG:  Solving for h, Initial residual = 0.022559038, Final residual = 2.2425472e-05, No Iterations 3
GAMG:  Solving for p_rgh, Initial residual = 0.039640472, Final residual = 1.9886868e-05, No Iterations 7
time step continuity errors : sum local = 6.5140209e-05, global = -2.7116226e-06, cumulative = -1.2581743e-05
ExecutionTime = 53.6 s  ClockTime = 54 s
Inflow      : -5.984662e-09 [kg/s]
Outflow     : -6.3330655e-09 [kg/s]
EnergyInflow  : -0.001806171 [W]
EnergyOutflow : -0.0019099144 [W]
rho max/avg/min : 1.1764116 1.1698506 1.1540518
T   max/avg/min : 305.77928 301.68003 300.00001
P   max/avg/min : 101325 101321.65 101313.54
Prg max/avg/min : 101325.03 101324.99 101324.81
U   max/avg/min : 8.4694274e-05 2.9985796e-06 -0.00032365727
Prg max-min : 0.21709195
 
Iteration Number = 32

DILUPBiCG:  Solving for Ux, Initial residual = 0.043993331, Final residual = 7.9140027e-07, No Iterations 2
DILUPBiCG:  Solving for Uy, Initial residual = 0.034000098, Final residual = 4.3055695e-07, No Iterations 2
DILUPBiCG:  Solving for Uz, Initial residual = 0.039230117, Final residual = 5.2371409e-07, No Iterations 2
DILUPBiCG:  Solving for h, Initial residual = 0.022016394, Final residual = 3.9838631e-06, No Iterations 4
GAMG:  Solving for p_rgh, Initial residual = 0.039105396, Final residual = 2.5487601e-05, No Iterations 7
time step continuity errors : sum local = 8.6930582e-05, global = 8.6356429e-07, cumulative = -1.1718179e-05
ExecutionTime = 55.37 s  ClockTime = 56 s
Inflow      : -7.291539e-09 [kg/s]
Outflow     : -7.1805837e-09 [kg/s]
EnergyInflow  : -0.0022005865 [W]
EnergyOutflow : -0.002165558 [W]
rho max/avg/min : 1.1764116 1.1696059 1.1535925
T   max/avg/min : 305.90116 301.74352 300.00002
P   max/avg/min : 101325 101321.65 101313.55
Prg max/avg/min : 101325.04 101324.99 101324.82
U   max/avg/min : 8.9661037e-05 1.0154972e-06 -0.00036179191
Prg max-min : 0.22167229
 
Iteration Number = 33

DILUPBiCG:  Solving for Ux, Initial residual = 0.040919766, Final residual = 8.5067706e-07, No Iterations 2
DILUPBiCG:  Solving for Uy, Initial residual = 0.040041199, Final residual = 5.8532913e-07, No Iterations 2
DILUPBiCG:  Solving for Uz, Initial residual = 0.037765821, Final residual = 5.6848144e-07, No Iterations 2
DILUPBiCG:  Solving for h, Initial residual = 0.021504019, Final residual = 3.9786969e-06, No Iterations 4
GAMG:  Solving for p_rgh, Initial residual = 0.036329949, Final residual = 2.5481137e-05, No Iterations 6
time step continuity errors : sum local = 9.0417515e-05, global = 1.7581525e-06, cumulative = -9.960026e-06
ExecutionTime = 57.08 s  ClockTime = 57 s
Inflow      : -8.3855729e-09 [kg/s]
Outflow     : -8.1596762e-09 [kg/s]
EnergyInflow  : -0.0025307659 [W]
EnergyOutflow : -0.0024608908 [W]
rho max/avg/min : 1.1764116 1.1693603 1.1531373
T   max/avg/min : 306.02202 301.80727 300.00002
P   max/avg/min : 101325 101321.65 101313.55
Prg max/avg/min : 101325.04 101324.99 101324.81
U   max/avg/min : 9.4836712e-05 -1.0996052e-06 -0.00040214148
Prg max-min : 0.22555366
 
Iteration Number = 34

DILUPBiCG:  Solving for Ux, Initial residual = 0.041856246, Final residual = 8.0842961e-07, No Iterations 2
DILUPBiCG:  Solving for Uy, Initial residual = 0.030479185, Final residual = 4.0890278e-07, No Iterations 2
DILUPBiCG:  Solving for Uz, Initial residual = 0.035118909, Final residual = 4.9099664e-07, No Iterations 2
DILUPBiCG:  Solving for h, Initial residual = 0.021020095, Final residual = 3.9408827e-06, No Iterations 4
GAMG:  Solving for p_rgh, Initial residual = 0.036310292, Final residual = 2.977823e-05, No Iterations 5
time step continuity errors : sum local = 0.00011017608, global = 2.0929995e-06, cumulative = -7.8670266e-06
ExecutionTime = 58.7 s  ClockTime = 59 s
Inflow      : -9.4420126e-09 [kg/s]
Outflow     : -9.173093e-09 [kg/s]
EnergyInflow  : -0.0028495994 [W]
EnergyOutflow : -0.0027666188 [W]
rho max/avg/min : 1.1764116 1.1691139 1.1526859
T   max/avg/min : 306.14195 301.87125 300.00003
P   max/avg/min : 101325 101321.65 101313.55
Prg max/avg/min : 101325.04 101324.99 101324.81
U   max/avg/min : 0.00010057609 -3.1194487e-06 -0.0004394209
Prg max-min : 0.23041129
 
Iteration Number = 35

DILUPBiCG:  Solving for Ux, Initial residual = 0.039759156, Final residual = 8.199682e-07, No Iterations 2
DILUPBiCG:  Solving for Uy, Initial residual = 0.038242733, Final residual = 5.6783296e-07, No Iterations 2
DILUPBiCG:  Solving for Uz, Initial residual = 0.032731376, Final residual = 4.5269526e-07, No Iterations 2
DILUPBiCG:  Solving for h, Initial residual = 0.020560088, Final residual = 3.9103404e-06, No Iterations 4
GAMG:  Solving for p_rgh, Initial residual = 0.032702166, Final residual = 2.3680014e-05, No Iterations 6
time step continuity errors : sum local = 9.0957013e-05, global = 1.6495562e-06, cumulative = -6.2174704e-06
ExecutionTime = 60.4 s  ClockTime = 61 s
Inflow      : -1.0421622e-08 [kg/s]
Outflow     : -1.0209678e-08 [kg/s]
EnergyInflow  : -0.0031452454 [W]
EnergyOutflow : -0.0030793111 [W]
rho max/avg/min : 1.1764116 1.1688667 1.1522382
T   max/avg/min : 306.26097 301.93546 300.00003
P   max/avg/min : 101325 101321.65 101313.56
Prg max/avg/min : 101325.04 101324.99 101324.81
U   max/avg/min : 0.00010655994 -4.9663055e-06 -0.00048718839
Prg max-min : 0.23488158
 
Iteration Number = 36

DILUPBiCG:  Solving for Ux, Initial residual = 0.040616112, Final residual = 7.931824e-07, No Iterations 2
DILUPBiCG:  Solving for Uy, Initial residual = 0.02780901, Final residual = 3.8750692e-07, No Iterations 2
DILUPBiCG:  Solving for Uz, Initial residual = 0.031179969, Final residual = 4.2162093e-07, No Iterations 2
DILUPBiCG:  Solving for h, Initial residual = 0.020124295, Final residual = 3.8622522e-06, No Iterations 4
GAMG:  Solving for p_rgh, Initial residual = 0.03270509, Final residual = 2.146038e-05, No Iterations 7
time step continuity errors : sum local = 8.5532596e-05, global = 1.7113693e-06, cumulative = -4.5061011e-06
ExecutionTime = 62.12 s  ClockTime = 62 s
Inflow      : -1.1599103e-08 [kg/s]
Outflow     : -1.1379218e-08 [kg/s]
EnergyInflow  : -0.0035006094 [W]
EnergyOutflow : -0.0034321274 [W]
rho max/avg/min : 1.1764115 1.1686189 1.151794
T   max/avg/min : 306.37915 301.99988 300.00004
P   max/avg/min : 101325 101321.65 101313.55
Prg max/avg/min : 101325.04 101324.99 101324.8
U   max/avg/min : 0.00011291838 -6.3532441e-06 -0.00053249506
Prg max-min : 0.2389365
 
Iteration Number = 37

DILUPBiCG:  Solving for Ux, Initial residual = 0.038936631, Final residual = 7.8742899e-07, No Iterations 2
DILUPBiCG:  Solving for Uy, Initial residual = 0.036513654, Final residual = 5.5753107e-07, No Iterations 2
DILUPBiCG:  Solving for Uz, Initial residual = 0.029101605, Final residual = 3.820109e-07, No Iterations 2
DILUPBiCG:  Solving for h, Initial residual = 0.019708094, Final residual = 3.8317306e-06, No Iterations 4
GAMG:  Solving for p_rgh, Initial residual = 0.030257895, Final residual = 2.2712646e-05, No Iterations 6
time step continuity errors : sum local = 9.3790417e-05, global = -1.5082135e-06, cumulative = -6.0143146e-06
ExecutionTime = 63.78 s  ClockTime = 64 s
Inflow      : -1.2515e-08 [kg/s]
Outflow     : -1.2708784e-08 [kg/s]
EnergyInflow  : -0.0037770271 [W]
EnergyOutflow : -0.00383322 [W]
rho max/avg/min : 1.1764115 1.1683704 1.1513532
T   max/avg/min : 306.49653 302.06449 300.00005
P   max/avg/min : 101325 101321.65 101313.55
Prg max/avg/min : 101325.04 101324.99 101324.8
U   max/avg/min : 0.0001195511 -7.5320519e-06 -0.00058320472
Prg max-min : 0.2423385
 
Iteration Number = 38

DILUPBiCG:  Solving for Ux, Initial residual = 0.038849135, Final residual = 7.4254859e-07, No Iterations 2
DILUPBiCG:  Solving for Uy, Initial residual = 0.027025677, Final residual = 3.7134745e-07, No Iterations 2
DILUPBiCG:  Solving for Uz, Initial residual = 0.027875894, Final residual = 3.5769365e-07, No Iterations 2
DILUPBiCG:  Solving for h, Initial residual = 0.019313339, Final residual = 3.78785e-06, No Iterations 4
GAMG:  Solving for p_rgh, Initial residual = 0.030945128, Final residual = 2.8364516e-05, No Iterations 5
time step continuity errors : sum local = 0.00012107524, global = -4.4025009e-06, cumulative = -1.0416816e-05
ExecutionTime = 65.4 s  ClockTime = 66 s
Inflow      : -1.3487631e-08 [kg/s]
Outflow     : -1.4053287e-08 [kg/s]
EnergyInflow  : -0.004070567 [W]
EnergyOutflow : -0.0042388578 [W]
rho max/avg/min : 1.1764114 1.1681214 1.1509156
T   max/avg/min : 306.61314 302.12928 300.00006
P   max/avg/min : 101325 101321.65 101313.56
Prg max/avg/min : 101325.04 101324.99 101324.8
U   max/avg/min : 0.00012690987 -8.7764256e-06 -0.00062899094
Prg max-min : 0.24735697
 
Iteration Number = 39

DILUPBiCG:  Solving for Ux, Initial residual = 0.038334122, Final residual = 7.6241677e-07, No Iterations 2
DILUPBiCG:  Solving for Uy, Initial residual = 0.035451658, Final residual = 5.4048464e-07, No Iterations 2
DILUPBiCG:  Solving for Uz, Initial residual = 0.026702656, Final residual = 3.4264096e-07, No Iterations 2
DILUPBiCG:  Solving for h, Initial residual = 0.018934844, Final residual = 3.7551379e-06, No Iterations 4
GAMG:  Solving for p_rgh, Initial residual = 0.029023002, Final residual = 2.7508732e-05, No Iterations 6
time step continuity errors : sum local = 0.00012135434, global = 1.9055941e-06, cumulative = -8.5112214e-06
ExecutionTime = 67.11 s  ClockTime = 67 s
Inflow      : -1.5652793e-08 [kg/s]
Outflow     : -1.5407952e-08 [kg/s]
EnergyInflow  : -0.0047240129 [W]
EnergyOutflow : -0.0046475354 [W]
rho max/avg/min : 1.1764114 1.1678718 1.1504811
T   max/avg/min : 306.72903 302.19425 300.00008
P   max/avg/min : 101325 101321.66 101313.56
Prg max/avg/min : 101325.05 101324.99 101324.8
U   max/avg/min : 0.00013425061 -1.1095988e-05 -0.00068359313
Prg max-min : 0.25170046
 
Iteration Number = 40

DILUPBiCG:  Solving for Ux, Initial residual = 0.038665184, Final residual = 7.2814833e-07, No Iterations 2
DILUPBiCG:  Solving for Uy, Initial residual = 0.026434015, Final residual = 3.6450405e-07, No Iterations 2
DILUPBiCG:  Solving for Uz, Initial residual = 0.025964641, Final residual = 4.2567768e-07, No Iterations 2
DILUPBiCG:  Solving for h, Initial residual = 0.018575616, Final residual = 3.7261832e-06, No Iterations 4
GAMG:  Solving for p_rgh, Initial residual = 0.029305855, Final residual = 1.9371735e-05, No Iterations 6
time step continuity errors : sum local = 8.8101951e-05, global = -1.3769272e-05, cumulative = -2.2280493e-05
ExecutionTime = 68.78 s  ClockTime = 69 s
Inflow      : -1.5156104e-08 [kg/s]
Outflow     : -1.6925253e-08 [kg/s]
EnergyInflow  : -0.0045741123 [W]
EnergyOutflow : -0.005105305 [W]
rho max/avg/min : 1.1764113 1.1676217 1.1500495
T   max/avg/min : 306.84423 302.25938 300.00009
P   max/avg/min : 101325 101321.66 101313.56
Prg max/avg/min : 101325.05 101324.99 101324.8
U   max/avg/min : 0.00014157155 -1.2737722e-05 -0.00073672069
Prg max-min : 0.25555023
 
Iteration Number = 41

DILUPBiCG:  Solving for Ux, Initial residual = 0.037554813, Final residual = 7.6076628e-07, No Iterations 2
DILUPBiCG:  Solving for Uy, Initial residual = 0.033867923, Final residual = 5.3970793e-07, No Iterations 2
DILUPBiCG:  Solving for Uz, Initial residual = 0.024723157, Final residual = 3.1378854e-07, No Iterations 2
DILUPBiCG:  Solving for h, Initial residual = 0.018228654, Final residual = 3.6560643e-06, No Iterations 4
GAMG:  Solving for p_rgh, Initial residual = 0.027312804, Final residual = 1.2508716e-05, No Iterations 7
time step continuity errors : sum local = 5.8682034e-05, global = 6.3274694e-07, cumulative = -2.1647746e-05
ExecutionTime = 70.52 s  ClockTime = 71 s
Inflow      : -1.858707e-08 [kg/s]
Outflow     : -1.8505771e-08 [kg/s]
EnergyInflow  : -0.0056095777 [W]
EnergyOutflow : -0.0055821272 [W]
rho max/avg/min : 1.1764113 1.1673712 1.1496207
T   max/avg/min : 306.95878 302.32465 300.00011
P   max/avg/min : 101325 101321.66 101313.57
Prg max/avg/min : 101325.06 101324.99 101324.8
U   max/avg/min : 0.00014837544 -1.6341742e-05 -0.00079621078
Prg max-min : 0.25921021
 
Iteration Number = 42

DILUPBiCG:  Solving for Ux, Initial residual = 0.037056254, Final residual = 6.9186236e-07, No Iterations 2
DILUPBiCG:  Solving for Uy, Initial residual = 0.025341893, Final residual = 3.4834872e-07, No Iterations 2
DILUPBiCG:  Solving for Uz, Initial residual = 0.024073038, Final residual = 4.7552946e-07, No Iterations 2
DILUPBiCG:  Solving for h, Initial residual = 0.0178992, Final residual = 3.6346924e-06, No Iterations 4
GAMG:  Solving for p_rgh, Initial residual = 0.027924947, Final residual = 2.7763931e-05, No Iterations 5
time step continuity errors : sum local = 0.00013404138, global = 1.3432779e-07, cumulative = -2.1513418e-05
ExecutionTime = 72.13 s  ClockTime = 72 s
Inflow      : -2.0236441e-08 [kg/s]
Outflow     : -2.0219182e-08 [kg/s]
EnergyInflow  : -0.0061073579 [W]
EnergyOutflow : -0.0060991114 [W]
rho max/avg/min : 1.1764112 1.1671203 1.1491945
T   max/avg/min : 307.0727 302.39007 300.00013
P   max/avg/min : 101325 101321.66 101313.57
Prg max/avg/min : 101325.06 101324.99 101324.8
U   max/avg/min : 0.0001554117 -1.968634e-05 -0.00085568571
Prg max-min : 0.26364291
 
Iteration Number = 43

DILUPBiCG:  Solving for Ux, Initial residual = 0.036152157, Final residual = 7.2984288e-07, No Iterations 2
DILUPBiCG:  Solving for Uy, Initial residual = 0.032241502, Final residual = 5.2281695e-07, No Iterations 2
DILUPBiCG:  Solving for Uz, Initial residual = 0.022396639, Final residual = 3.2094638e-07, No Iterations 2
DILUPBiCG:  Solving for h, Initial residual = 0.017580241, Final residual = 3.5952462e-06, No Iterations 4
GAMG:  Solving for p_rgh, Initial residual = 0.027412657, Final residual = 1.8320884e-05, No Iterations 7
time step continuity errors : sum local = 9.1213472e-05, global = 4.5013362e-06, cumulative = -1.7012082e-05
ExecutionTime = 73.96 s  ClockTime = 74 s
Inflow      : -2.250399e-08 [kg/s]
Outflow     : -2.1925635e-08 [kg/s]
EnergyInflow  : -0.0067917042 [W]
EnergyOutflow : -0.006613938 [W]
rho max/avg/min : 1.1764111 1.1668691 1.1487709
T   max/avg/min : 307.18604 302.45561 300.00015
P   max/avg/min : 101325 101321.66 101313.58
Prg max/avg/min : 101325.06 101324.99 101324.8
U   max/avg/min : 0.00016195571 -2.2855067e-05 -0.00092001131
Prg max-min : 0.26756838
 
Iteration Number = 44

DILUPBiCG:  Solving for Ux, Initial residual = 0.036230254, Final residual = 6.8730177e-07, No Iterations 2
DILUPBiCG:  Solving for Uy, Initial residual = 0.024576134, Final residual = 3.2962615e-07, No Iterations 2
DILUPBiCG:  Solving for Uz, Initial residual = 0.021939857, Final residual = 3.1457207e-07, No Iterations 2
DILUPBiCG:  Solving for h, Initial residual = 0.017277033, Final residual = 3.568705e-06, No Iterations 4
GAMG:  Solving for p_rgh, Initial residual = 0.0273001, Final residual = 2.6649022e-05, No Iterations 5
time step continuity errors : sum local = 0.00013606696, global = 5.1785939e-07, cumulative = -1.6494223e-05
ExecutionTime = 75.56 s  ClockTime = 76 s
Inflow      : -2.3936867e-08 [kg/s]
Outflow     : -2.387033e-08 [kg/s]
EnergyInflow  : -0.0072241466 [W]
EnergyOutflow : -0.007200719 [W]
rho max/avg/min : 1.176411 1.1666175 1.1483497
T   max/avg/min : 307.29881 302.52127 300.00017
P   max/avg/min : 101325 101321.66 101313.58
Prg max/avg/min : 101325.07 101324.99 101324.8
U   max/avg/min : 0.00016833766 -2.5967805e-05 -0.00098511724
Prg max-min : 0.27124036
 
Iteration Number = 45

DILUPBiCG:  Solving for Ux, Initial residual = 0.035183163, Final residual = 7.1601745e-07, No Iterations 2
DILUPBiCG:  Solving for Uy, Initial residual = 0.030696602, Final residual = 5.0775239e-07, No Iterations 2
DILUPBiCG:  Solving for Uz, Initial residual = 0.020748768, Final residual = 2.79215e-07, No Iterations 2
DILUPBiCG:  Solving for h, Initial residual = 0.016982678, Final residual = 3.5400103e-06, No Iterations 4
GAMG:  Solving for p_rgh, Initial residual = 0.026210614, Final residual = 2.3386457e-05, No Iterations 6
time step continuity errors : sum local = 0.00012292051, global = 2.5873488e-06, cumulative = -1.3906874e-05
ExecutionTime = 77.33 s  ClockTime = 78 s
Inflow      : -2.6060812e-08 [kg/s]
Outflow     : -2.5728376e-08 [kg/s]
EnergyInflow  : -0.0078651531 [W]
EnergyOutflow : -0.0077612931 [W]
rho max/avg/min : 1.1764109 1.1663656 1.1479307
T   max/avg/min : 307.41105 302.58705 300.0002
P   max/avg/min : 101325 101321.66 101313.58
Prg max/avg/min : 101325.07 101324.99 101324.8
U   max/avg/min : 0.00017496198 -3.0007858e-05 -0.0010529379
Prg max-min : 0.27563209
 
Iteration Number = 46

DILUPBiCG:  Solving for Ux, Initial residual = 0.034901417, Final residual = 6.6472006e-07, No Iterations 2
DILUPBiCG:  Solving for Uy, Initial residual = 0.023884933, Final residual = 3.1743657e-07, No Iterations 2
DILUPBiCG:  Solving for Uz, Initial residual = 0.020119184, Final residual = 3.1719746e-07, No Iterations 2
DILUPBiCG:  Solving for h, Initial residual = 0.01670343, Final residual = 3.5138773e-06, No Iterations 4
GAMG:  Solving for p_rgh, Initial residual = 0.028587885, Final residual = 2.3416588e-05, No Iterations 5
time step continuity errors : sum local = 0.00012603393, global = 1.1472846e-06, cumulative = -1.2759589e-05
ExecutionTime = 79.01 s  ClockTime = 79 s
Inflow      : -2.8012821e-08 [kg/s]
Outflow     : -2.7865411e-08 [kg/s]
EnergyInflow  : -0.0084542692 [W]
EnergyOutflow : -0.0084061258 [W]
rho max/avg/min : 1.1764108 1.1661134 1.147514
T   max/avg/min : 307.52277 302.65293 300.00023
P   max/avg/min : 101325 101321.66 101313.59
Prg max/avg/min : 101325.07 101324.99 101324.79
U   max/avg/min : 0.00018165473 -3.4358677e-05 -0.0011233458
Prg max-min : 0.27900514
 
Iteration Number = 47

DILUPBiCG:  Solving for Ux, Initial residual = 0.034063941, Final residual = 7.2928784e-07, No Iterations 2
DILUPBiCG:  Solving for Uy, Initial residual = 0.029086001, Final residual = 5.0111766e-07, No Iterations 2
DILUPBiCG:  Solving for Uz, Initial residual = 0.01900276, Final residual = 2.8448233e-07, No Iterations 2
DILUPBiCG:  Solving for h, Initial residual = 0.016430443, Final residual = 3.4597979e-06, No Iterations 4
GAMG:  Solving for p_rgh, Initial residual = 0.027340049, Final residual = 1.8175398e-05, No Iterations 6
time step continuity errors : sum local = 0.00010048582, global = -3.4454559e-07, cumulative = -1.3104135e-05
ExecutionTime = 80.76 s  ClockTime = 81 s
Inflow      : -2.9894888e-08 [kg/s]
Outflow     : -2.9939157e-08 [kg/s]
EnergyInflow  : -0.0090222772 [W]
EnergyOutflow : -0.0090318135 [W]
rho max/avg/min : 1.1764107 1.165861 1.1470994
T   max/avg/min : 307.63401 302.7189 300.00026
P   max/avg/min : 101325 101321.66 101313.59
Prg max/avg/min : 101325.08 101324.99 101324.79
U   max/avg/min : 0.00018875647 -3.8420099e-05 -0.0011960287
Prg max-min : 0.28355825
 
Iteration Number = 48

DILUPBiCG:  Solving for Ux, Initial residual = 0.033992946, Final residual = 6.4970856e-07, No Iterations 2
DILUPBiCG:  Solving for Uy, Initial residual = 0.024233216, Final residual = 3.2368571e-07, No Iterations 2
DILUPBiCG:  Solving for Uz, Initial residual = 0.018335195, Final residual = 2.5996006e-07, No Iterations 2
DILUPBiCG:  Solving for h, Initial residual = 0.01616896, Final residual = 3.4280506e-06, No Iterations 4
GAMG:  Solving for p_rgh, Initial residual = 0.027683754, Final residual = 2.2659164e-05, No Iterations 5
time step continuity errors : sum local = 0.00012818555, global = -3.9366577e-06, cumulative = -1.7040793e-05
ExecutionTime = 82.4 s  ClockTime = 83 s
Inflow      : -3.1798398e-08 [kg/s]
Outflow     : -3.23042e-08 [kg/s]
EnergyInflow  : -0.0095967565 [W]
EnergyOutflow : -0.00974548 [W]
rho max/avg/min : 1.1764105 1.1656084 1.1466869
T   max/avg/min : 307.74478 302.78496 300.0003
P   max/avg/min : 101325 101321.66 101313.59
Prg max/avg/min : 101325.08 101324.99 101324.79
U   max/avg/min : 0.0001959064 -4.2557786e-05 -0.0012724027
Prg max-min : 0.28688089
 
Iteration Number = 49

DILUPBiCG:  Solving for Ux, Initial residual = 0.032900648, Final residual = 7.0755388e-07, No Iterations 2
DILUPBiCG:  Solving for Uy, Initial residual = 0.027738599, Final residual = 5.0003379e-07, No Iterations 2
DILUPBiCG:  Solving for Uz, Initial residual = 0.017511698, Final residual = 2.488015e-07, No Iterations 2
DILUPBiCG:  Solving for h, Initial residual = 0.015917117, Final residual = 3.3841022e-06, No Iterations 4
GAMG:  Solving for p_rgh, Initial residual = 0.027296808, Final residual = 2.3138954e-05, No Iterations 6
time step continuity errors : sum local = 0.00013412389, global = -1.4728848e-07, cumulative = -1.7188081e-05
ExecutionTime = 84.13 s  ClockTime = 84 s
Inflow      : -3.4618856e-08 [kg/s]
Outflow     : -3.463778e-08 [kg/s]
EnergyInflow  : -0.010447971 [W]
EnergyOutflow : -0.010449606 [W]
rho max/avg/min : 1.1764104 1.1653556 1.1462763
T   max/avg/min : 307.85511 302.8511 300.00034
P   max/avg/min : 101325 101321.67 101313.6
Prg max/avg/min : 101325.08 101324.99 101324.79
U   max/avg/min : 0.00020348957 -4.7543554e-05 -0.0013524486
Prg max-min : 0.29125819
 
Iteration Number = 50

DILUPBiCG:  Solving for Ux, Initial residual = 0.033647302, Final residual = 6.4685223e-07, No Iterations 2
DILUPBiCG:  Solving for Uy, Initial residual = 0.02526056, Final residual = 3.3803055e-07, No Iterations 2
DILUPBiCG:  Solving for Uz, Initial residual = 0.017014053, Final residual = 2.7270279e-07, No Iterations 2
DILUPBiCG:  Solving for h, Initial residual = 0.015673152, Final residual = 3.373714e-06, No Iterations 4
GAMG:  Solving for p_rgh, Initial residual = 0.027687227, Final residual = 1.9528202e-05, No Iterations 5
time step continuity errors : sum local = 0.00011573395, global = -3.5654278e-06, cumulative = -2.0753509e-05
ExecutionTime = 85.78 s  ClockTime = 86 s
Inflow      : -3.6769407e-08 [kg/s]
Outflow     : -3.7227512e-08 [kg/s]
EnergyInflow  : -0.011097007 [W]
EnergyOutflow : -0.011231114 [W]
rho max/avg/min : 1.1764102 1.1651026 1.1458676
T   max/avg/min : 307.96501 302.91732 300.00038
P   max/avg/min : 101325 101321.67 101313.6
Prg max/avg/min : 101325.08 101324.99 101324.79
U   max/avg/min : 0.00021113287 -5.2626539e-05 -0.0014370013
Prg max-min : 0.29476447
 
Iteration Number = 51

DILUPBiCG:  Solving for Ux, Initial residual = 0.032452207, Final residual = 7.0181716e-07, No Iterations 2
DILUPBiCG:  Solving for Uy, Initial residual = 0.026831341, Final residual = 4.9075675e-07, No Iterations 2
DILUPBiCG:  Solving for Uz, Initial residual = 0.016237567, Final residual = 2.3820069e-07, No Iterations 2
DILUPBiCG:  Solving for h, Initial residual = 0.015438852, Final residual = 3.3128231e-06, No Iterations 4
GAMG:  Solving for p_rgh, Initial residual = 0.028684959, Final residual = 1.0094703e-05, No Iterations 7
time step continuity errors : sum local = 6.1190441e-05, global = -1.5530984e-06, cumulative = -2.2306607e-05
ExecutionTime = 87.64 s  ClockTime = 88 s
Inflow      : -3.9673216e-08 [kg/s]
Outflow     : -3.9872766e-08 [kg/s]
EnergyInflow  : -0.011973377 [W]
EnergyOutflow : -0.0120293 [W]
rho max/avg/min : 1.17641 1.1648495 1.1454607
T   max/avg/min : 308.07451 302.98361 300.00043
P   max/avg/min : 101325 101321.67 101313.6
Prg max/avg/min : 101325.09 101324.99 101324.79
U   max/avg/min : 0.00021839068 -5.8201146e-05 -0.0015232435
Prg max-min : 0.29904715
 
Iteration Number = 52

DILUPBiCG:  Solving for Ux, Initial residual = 0.033412511, Final residual = 6.6724228e-07, No Iterations 2
DILUPBiCG:  Solving for Uy, Initial residual = 0.026760296, Final residual = 3.5096632e-07, No Iterations 2
DILUPBiCG:  Solving for Uz, Initial residual = 0.015811771, Final residual = 2.4514687e-07, No Iterations 2
DILUPBiCG:  Solving for h, Initial residual = 0.015208783, Final residual = 3.2674941e-06, No Iterations 4
GAMG:  Solving for p_rgh, Initial residual = 0.026965315, Final residual = 1.6352908e-05, No Iterations 6
time step continuity errors : sum local = 0.00010123839, global = -1.9129999e-06, cumulative = -2.4219607e-05
ExecutionTime = 89.43 s  ClockTime = 90 s
Inflow      : -4.2456151e-08 [kg/s]
Outflow     : -4.2701943e-08 [kg/s]
EnergyInflow  : -0.012813266 [W]
EnergyOutflow : -0.012883058 [W]
rho max/avg/min : 1.1764098 1.1645964 1.1450555
T   max/avg/min : 308.18362 303.04996 300.00048
P   max/avg/min : 101325 101321.67 101313.61
Prg max/avg/min : 101325.1 101324.99 101324.79
U   max/avg/min : 0.00022534593 -6.4361604e-05 -0.001618764
Prg max-min : 0.30245373
 
Iteration Number = 53

DILUPBiCG:  Solving for Ux, Initial residual = 0.031035, Final residual = 6.6896911e-07, No Iterations 2
DILUPBiCG:  Solving for Uy, Initial residual = 0.025138172, Final residual = 4.4371201e-07, No Iterations 2
DILUPBiCG:  Solving for Uz, Initial residual = 0.015285585, Final residual = 2.2871919e-07, No Iterations 2
DILUPBiCG:  Solving for h, Initial residual = 0.014986946, Final residual = 3.2419134e-06, No Iterations 4
GAMG:  Solving for p_rgh, Initial residual = 0.026669184, Final residual = 2.3618777e-05, No Iterations 6
time step continuity errors : sum local = 0.00014928025, global = -6.0249104e-07, cumulative = -2.4822098e-05
ExecutionTime = 91.17 s  ClockTime = 91 s
Inflow      : -4.5594953e-08 [kg/s]
Outflow     : -4.5672364e-08 [kg/s]
EnergyInflow  : -0.013760557 [W]
EnergyOutflow : -0.013779439 [W]
rho max/avg/min : 1.1764096 1.1643431 1.144652
T   max/avg/min : 308.29236 303.11637 300.00054
P   max/avg/min : 101325 101321.67 101313.61
Prg max/avg/min : 101325.1 101324.99 101324.79
U   max/avg/min : 0.00023204869 -7.0937782e-05 -0.001713637
Prg max-min : 0.30632238
 
Iteration Number = 54

DILUPBiCG:  Solving for Ux, Initial residual = 0.032517263, Final residual = 6.4661313e-07, No Iterations 2
DILUPBiCG:  Solving for Uy, Initial residual = 0.028223589, Final residual = 3.6949088e-07, No Iterations 2
DILUPBiCG:  Solving for Uz, Initial residual = 0.014763991, Final residual = 2.2930178e-07, No Iterations 2
DILUPBiCG:  Solving for h, Initial residual = 0.014774098, Final residual = 3.2352506e-06, No Iterations 4
GAMG:  Solving for p_rgh, Initial residual = 0.027114773, Final residual = 9.3061688e-06, No Iterations 6
time step continuity errors : sum local = 6.0021521e-05, global = -1.235638e-06, cumulative = -2.6057736e-05
ExecutionTime = 92.88 s  ClockTime = 93 s
Inflow      : -4.8598994e-08 [kg/s]
Outflow     : -4.8757755e-08 [kg/s]
EnergyInflow  : -0.014667176 [W]
EnergyOutflow : -0.014710557 [W]
rho max/avg/min : 1.1764094 1.1640897 1.1442501
T   max/avg/min : 308.40074 303.18284 300.00059
P   max/avg/min : 101325 101321.67 101313.62
Prg max/avg/min : 101325.1 101325 101324.79
U   max/avg/min : 0.00023869253 -7.7925524e-05 -0.0018137444
Prg max-min : 0.31016948
 
Iteration Number = 55

DILUPBiCG:  Solving for Ux, Initial residual = 0.029571144, Final residual = 6.4070636e-07, No Iterations 2
DILUPBiCG:  Solving for Uy, Initial residual = 0.02454466, Final residual = 4.0588921e-07, No Iterations 2
DILUPBiCG:  Solving for Uz, Initial residual = 0.014252059, Final residual = 2.1376345e-07, No Iterations 2
DILUPBiCG:  Solving for h, Initial residual = 0.014567139, Final residual = 3.1881443e-06, No Iterations 4
GAMG:  Solving for p_rgh, Initial residual = 0.027584636, Final residual = 1.8432632e-05, No Iterations 6
time step continuity errors : sum local = 0.00012128746, global = -1.4560119e-06, cumulative = -2.7513748e-05
ExecutionTime = 94.66 s  ClockTime = 95 s
Inflow      : -5.1746907e-08 [kg/s]
Outflow     : -5.1933983e-08 [kg/s]
EnergyInflow  : -0.015617216 [W]
EnergyOutflow : -0.015669025 [W]
rho max/avg/min : 1.1764091 1.1638363 1.1438498
T   max/avg/min : 308.50878 303.24935 300.00066
P   max/avg/min : 101325 101321.67 101313.62
Prg max/avg/min : 101325.11 101325 101324.79
U   max/avg/min : 0.00024515537 -8.5054075e-05 -0.0019101523
Prg max-min : 0.31388803
 
Iteration Number = 56

DILUPBiCG:  Solving for Ux, Initial residual = 0.031404166, Final residual = 6.7478094e-07, No Iterations 2
DILUPBiCG:  Solving for Uy, Initial residual = 0.029729917, Final residual = 3.9820199e-07, No Iterations 2
DILUPBiCG:  Solving for Uz, Initial residual = 0.013707054, Final residual = 2.0929766e-07, No Iterations 2
DILUPBiCG:  Solving for h, Initial residual = 0.014366379, Final residual = 3.1542244e-06, No Iterations 4
GAMG:  Solving for p_rgh, Initial residual = 0.026994166, Final residual = 2.154583e-05, No Iterations 5
time step continuity errors : sum local = 0.00014436321, global = -5.7990573e-07, cumulative = -2.8093654e-05
ExecutionTime = 96.4 s  ClockTime = 97 s
Inflow      : -5.513794e-08 [kg/s]
Outflow     : -5.5212449e-08 [kg/s]
EnergyInflow  : -0.01664063 [W]
EnergyOutflow : -0.016658403 [W]
rho max/avg/min : 1.1764089 1.1635828 1.1434509
T   max/avg/min : 308.6165 303.31591 300.00073
P   max/avg/min : 101325 101321.67 101313.62
Prg max/avg/min : 101325.11 101325 101324.79
U   max/avg/min : 0.00025174768 -9.2491856e-05 -0.0020150245
Prg max-min : 0.31795218
 
Iteration Number = 57

DILUPBiCG:  Solving for Ux, Initial residual = 0.028927161, Final residual = 6.1060729e-07, No Iterations 2
DILUPBiCG:  Solving for Uy, Initial residual = 0.025007586, Final residual = 3.9051047e-07, No Iterations 2
DILUPBiCG:  Solving for Uz, Initial residual = 0.01324355, Final residual = 1.985555e-07, No Iterations 2
DILUPBiCG:  Solving for h, Initial residual = 0.014170614, Final residual = 3.1448554e-06, No Iterations 4
GAMG:  Solving for p_rgh, Initial residual = 0.02734584, Final residual = 1.6511503e-05, No Iterations 6
time step continuity errors : sum local = 0.00011270536, global = -1.7473797e-06, cumulative = -2.9841034e-05
ExecutionTime = 98.2 s  ClockTime = 99 s
Inflow      : -5.8415458e-08 [kg/s]
Outflow     : -5.863997e-08 [kg/s]
EnergyInflow  : -0.017629785 [W]
EnergyOutflow : -0.017692748 [W]
rho max/avg/min : 1.1764086 1.1633294 1.1430534
T   max/avg/min : 308.7239 303.38251 300.0008
P   max/avg/min : 101325 101321.67 101313.63
Prg max/avg/min : 101325.11 101325 101324.79
U   max/avg/min : 0.00025816961 -0.00010012362 -0.0021185976
Prg max-min : 0.32144058
 
Iteration Number = 58

DILUPBiCG:  Solving for Ux, Initial residual = 0.031459756, Final residual = 6.7153539e-07, No Iterations 2
DILUPBiCG:  Solving for Uy, Initial residual = 0.030555346, Final residual = 4.1292128e-07, No Iterations 2
DILUPBiCG:  Solving for Uz, Initial residual = 0.012767899, Final residual = 1.9537958e-07, No Iterations 2
DILUPBiCG:  Solving for h, Initial residual = 0.013980875, Final residual = 3.0836151e-06, No Iterations 4
GAMG:  Solving for p_rgh, Initial residual = 0.026294725, Final residual = 2.4959719e-05, No Iterations 5
time step continuity errors : sum local = 0.00017338395, global = -3.1387738e-06, cumulative = -3.2979807e-05
ExecutionTime = 99.79 s  ClockTime = 100 s
Inflow      : -6.1763672e-08 [kg/s]
Outflow     : -6.2166958e-08 [kg/s]
EnergyInflow  : -0.018640276 [W]
EnergyOutflow : -0.018757167 [W]
rho max/avg/min : 1.1764083 1.1630759 1.1426574
T   max/avg/min : 308.831 303.44915 300.00088
P   max/avg/min : 101325 101321.68 101313.63
Prg max/avg/min : 101325.12 101325 101324.79
U   max/avg/min : 0.00026502347 -0.00010794116 -0.0022264124
Prg max-min : 0.32519679
 
Iteration Number = 59

DILUPBiCG:  Solving for Ux, Initial residual = 0.029169706, Final residual = 6.1386439e-07, No Iterations 2
DILUPBiCG:  Solving for Uy, Initial residual = 0.025599684, Final residual = 3.8769638e-07, No Iterations 2
DILUPBiCG:  Solving for Uz, Initial residual = 0.012317148, Final residual = 1.8236325e-07, No Iterations 2
DILUPBiCG:  Solving for h, Initial residual = 0.013795778, Final residual = 3.0516187e-06, No Iterations 4
GAMG:  Solving for p_rgh, Initial residual = 0.025487655, Final residual = 1.6350755e-05, No Iterations 6
time step continuity errors : sum local = 0.00011564248, global = -1.7689284e-06, cumulative = -3.4748736e-05
ExecutionTime = 101.51 s  ClockTime = 102 s
Inflow      : -6.5556152e-08 [kg/s]
Outflow     : -6.5783433e-08 [kg/s]
EnergyInflow  : -0.019784847 [W]
EnergyOutflow : -0.019848535 [W]
rho max/avg/min : 1.1764079 1.1628224 1.1422627
T   max/avg/min : 308.93781 303.51581 300.00096
P   max/avg/min : 101325 101321.68 101313.63
Prg max/avg/min : 101325.12 101325 101324.79
U   max/avg/min : 0.00027194428 -0.00011621081 -0.0023355493
Prg max-min : 0.32908804
 
Iteration Number = 60

DILUPBiCG:  Solving for Ux, Initial residual = 0.032069103, Final residual = 6.6320127e-07, No Iterations 2
DILUPBiCG:  Solving for Uy, Initial residual = 0.032800654, Final residual = 4.5192376e-07, No Iterations 2
DILUPBiCG:  Solving for Uz, Initial residual = 0.011972446, Final residual = 1.8763179e-07, No Iterations 2
DILUPBiCG:  Solving for h, Initial residual = 0.013616384, Final residual = 3.0183885e-06, No Iterations 4
GAMG:  Solving for p_rgh, Initial residual = 0.024883504, Final residual = 1.8936258e-05, No Iterations 6
time step continuity errors : sum local = 0.00013605609, global = -3.3898487e-07, cumulative = -3.5087721e-05
ExecutionTime = 103.18 s  ClockTime = 104 s
Inflow      : -6.9505105e-08 [kg/s]
Outflow     : -6.954866e-08 [kg/s]
EnergyInflow  : -0.020976641 [W]
EnergyOutflow : -0.020984858 [W]
rho max/avg/min : 1.1764076 1.162569 1.1418693
T   max/avg/min : 309.04435 303.58251 300.00104
P   max/avg/min : 101325 101321.68 101313.64
Prg max/avg/min : 101325.12 101325 101324.79
U   max/avg/min : 0.00027880082 -0.0001250333 -0.0024506485
Prg max-min : 0.33278134
 
Iteration Number = 61

DILUPBiCG:  Solving for Ux, Initial residual = 0.029303989, Final residual = 5.9617375e-07, No Iterations 2
DILUPBiCG:  Solving for Uy, Initial residual = 0.026054093, Final residual = 3.6463466e-07, No Iterations 2
DILUPBiCG:  Solving for Uz, Initial residual = 0.011615793, Final residual = 1.7535997e-07, No Iterations 2
DILUPBiCG:  Solving for h, Initial residual = 0.013442078, Final residual = 3.0176308e-06, No Iterations 4
GAMG:  Solving for p_rgh, Initial residual = 0.025996456, Final residual = 1.7034037e-05, No Iterations 6
time step continuity errors : sum local = 0.00012448367, global = 5.5970083e-07, cumulative = -3.452802e-05
ExecutionTime = 104.89 s  ClockTime = 105 s
Inflow      : -7.3507095e-08 [kg/s]
Outflow     : -7.3435182e-08 [kg/s]
EnergyInflow  : -0.022184441 [W]
EnergyOutflow : -0.022157747 [W]
rho max/avg/min : 1.1764072 1.1623155 1.1414772
T   max/avg/min : 309.15061 303.64924 300.00114
P   max/avg/min : 101325 101321.68 101313.64
Prg max/avg/min : 101325.13 101325 101324.79
U   max/avg/min : 0.0002853913 -0.00013417312 -0.0025689576
Prg max-min : 0.33633362
 
Iteration Number = 62

DILUPBiCG:  Solving for Ux, Initial residual = 0.031568086, Final residual = 6.4010583e-07, No Iterations 2
DILUPBiCG:  Solving for Uy, Initial residual = 0.034455313, Final residual = 4.8165199e-07, No Iterations 2
DILUPBiCG:  Solving for Uz, Initial residual = 0.011292222, Final residual = 1.745094e-07, No Iterations 2
DILUPBiCG:  Solving for h, Initial residual = 0.013273428, Final residual = 2.9586521e-06, No Iterations 4
GAMG:  Solving for p_rgh, Initial residual = 0.024493511, Final residual = 1.6157909e-05, No Iterations 6
time step continuity errors : sum local = 0.0001198168, global = -9.2973893e-07, cumulative = -3.5457759e-05
ExecutionTime = 106.64 s  ClockTime = 107 s
Inflow      : -7.7340946e-08 [kg/s]
Outflow     : -7.7460404e-08 [kg/s]
EnergyInflow  : -0.023341498 [W]
EnergyOutflow : -0.023372547 [W]
rho max/avg/min : 1.1764069 1.1620622 1.1410863
T   max/avg/min : 309.25662 303.71599 300.00123
P   max/avg/min : 101325 101321.68 101313.65
Prg max/avg/min : 101325.13 101325 101324.79
U   max/avg/min : 0.00029176881 -0.00014360287 -0.0026900744
Prg max-min : 0.34027682
 
Iteration Number = 63

DILUPBiCG:  Solving for Ux, Initial residual = 0.029866945, Final residual = 6.0265415e-07, No Iterations 2
DILUPBiCG:  Solving for Uy, Initial residual = 0.027092371, Final residual = 3.6833972e-07, No Iterations 2
DILUPBiCG:  Solving for Uz, Initial residual = 0.010964505, Final residual = 1.6218726e-07, No Iterations 2
DILUPBiCG:  Solving for h, Initial residual = 0.013108074, Final residual = 2.9494522e-06, No Iterations 4
GAMG:  Solving for p_rgh, Initial residual = 0.026015128, Final residual = 2.5081058e-05, No Iterations 5
time step continuity errors : sum local = 0.00018915227, global = -2.7942073e-06, cumulative = -3.8251966e-05
ExecutionTime = 108.33 s  ClockTime = 109 s
Inflow      : -8.1250116e-08 [kg/s]
Outflow     : -8.160913e-08 [kg/s]
EnergyInflow  : -0.024521285 [W]
EnergyOutflow : -0.024624591 [W]
rho max/avg/min : 1.1764065 1.1618088 1.1406966
T   max/avg/min : 309.36237 303.78276 300.00134
P   max/avg/min : 101325 101321.68 101313.65
Prg max/avg/min : 101325.14 101325 101324.79
U   max/avg/min : 0.00029795379 -0.0001532476 -0.002814045
Prg max-min : 0.34366564
 
Iteration Number = 64

DILUPBiCG:  Solving for Ux, Initial residual = 0.031408018, Final residual = 6.6746076e-07, No Iterations 2
DILUPBiCG:  Solving for Uy, Initial residual = 0.035940734, Final residual = 5.0218872e-07, No Iterations 2
DILUPBiCG:  Solving for Uz, Initial residual = 0.010645301, Final residual = 1.6161578e-07, No Iterations 2
DILUPBiCG:  Solving for h, Initial residual = 0.012949682, Final residual = 2.8505962e-06, No Iterations 4
GAMG:  Solving for p_rgh, Initial residual = 0.025234081, Final residual = 2.2840094e-05, No Iterations 5
time step continuity errors : sum local = 0.0001746808, global = -2.9863496e-06, cumulative = -4.1238316e-05
ExecutionTime = 109.92 s  ClockTime = 110 s
Inflow      : -8.5508865e-08 [kg/s]
Outflow     : -8.5892567e-08 [kg/s]
EnergyInflow  : -0.025806576 [W]
EnergyOutflow : -0.025917334 [W]
rho max/avg/min : 1.176406 1.1615556 1.140308
T   max/avg/min : 309.46789 303.84954 300.00144
P   max/avg/min : 101325 101321.68 101313.65
Prg max/avg/min : 101325.14 101325 101324.79
U   max/avg/min : 0.00030435375 -0.00016325925 -0.0029383755
Prg max-min : 0.34751654
 
Iteration Number = 65

DILUPBiCG:  Solving for Ux, Initial residual = 0.030900379, Final residual = 6.1943918e-07, No Iterations 2
DILUPBiCG:  Solving for Uy, Initial residual = 0.028223409, Final residual = 3.762556e-07, No Iterations 2
DILUPBiCG:  Solving for Uz, Initial residual = 0.01033816, Final residual = 1.5402359e-07, No Iterations 2
DILUPBiCG:  Solving for h, Initial residual = 0.012790219, Final residual = 2.8603441e-06, No Iterations 4
GAMG:  Solving for p_rgh, Initial residual = 0.026767065, Final residual = 1.6954555e-05, No Iterations 7
time step continuity errors : sum local = 0.0001317993, global = -4.4439105e-06, cumulative = -4.5682226e-05
ExecutionTime = 111.68 s  ClockTime = 112 s
Inflow      : -8.9737712e-08 [kg/s]
Outflow     : -9.0308689e-08 [kg/s]
EnergyInflow  : -0.027082842 [W]
EnergyOutflow : -0.027250096 [W]
rho max/avg/min : 1.1764056 1.1613024 1.1399206
T   max/avg/min : 309.57317 303.91635 300.00156
P   max/avg/min : 101325 101321.69 101313.66
Prg max/avg/min : 101325.15 101325 101324.8
U   max/avg/min : 0.00030941631 -0.00017466773 -0.0030769471
Prg max-min : 0.35092818
 
Iteration Number = 66

DILUPBiCG:  Solving for Ux, Initial residual = 0.031979144, Final residual = 6.9734316e-07, No Iterations 2
DILUPBiCG:  Solving for Uy, Initial residual = 0.037942494, Final residual = 5.3578212e-07, No Iterations 2
DILUPBiCG:  Solving for Uz, Initial residual = 0.010509169, Final residual = 1.606104e-07, No Iterations 2
DILUPBiCG:  Solving for h, Initial residual = 0.012638223, Final residual = 2.8089364e-06, No Iterations 4
GAMG:  Solving for p_rgh, Initial residual = 0.025743822, Final residual = 1.8196181e-05, No Iterations 5
time step continuity errors : sum local = 0.00014335526, global = -1.3028956e-06, cumulative = -4.6985122e-05
ExecutionTime = 113.27 s  ClockTime = 114 s
Inflow      : -9.4824336e-08 [kg/s]
Outflow     : -9.4991739e-08 [kg/s]
EnergyInflow  : -0.028617985 [W]
EnergyOutflow : -0.028663479 [W]
rho max/avg/min : 1.1764051 1.1610493 1.1395343
T   max/avg/min : 309.67824 303.98316 300.00168
P   max/avg/min : 101325 101321.69 101313.67
Prg max/avg/min : 101325.15 101325 101324.8
U   max/avg/min : 0.00031432464 -0.00018684848 -0.0032152998
Prg max-min : 0.35481417
 
Iteration Number = 67

DILUPBiCG:  Solving for Ux, Initial residual = 0.031756936, Final residual = 6.2102826e-07, No Iterations 2
DILUPBiCG:  Solving for Uy, Initial residual = 0.02980288, Final residual = 4.0151519e-07, No Iterations 2
DILUPBiCG:  Solving for Uz, Initial residual = 0.010104023, Final residual = 1.4963512e-07, No Iterations 2
DILUPBiCG:  Solving for h, Initial residual = 0.012488584, Final residual = 2.8030287e-06, No Iterations 4
GAMG:  Solving for p_rgh, Initial residual = 0.027953441, Final residual = 2.1927409e-05, No Iterations 5
time step continuity errors : sum local = 0.00017554557, global = 2.1073616e-06, cumulative = -4.487776e-05
ExecutionTime = 114.86 s  ClockTime = 115 s
Inflow      : -9.9877175e-08 [kg/s]
Outflow     : -9.960641e-08 [kg/s]
EnergyInflow  : -0.030142931 [W]
EnergyOutflow : -0.030056143 [W]
rho max/avg/min : 1.1764046 1.1607962 1.139149
T   max/avg/min : 309.78308 304.04999 300.0018
P   max/avg/min : 101325 101321.69 101313.67
Prg max/avg/min : 101325.16 101325 101324.8
U   max/avg/min : 0.00031987145 -0.00019896572 -0.0033511006
Prg max-min : 0.35816577
 
Iteration Number = 68

DILUPBiCG:  Solving for Ux, Initial residual = 0.032233126, Final residual = 6.9633724e-07, No Iterations 2
DILUPBiCG:  Solving for Uy, Initial residual = 0.040237527, Final residual = 5.7907738e-07, No Iterations 2
DILUPBiCG:  Solving for Uz, Initial residual = 0.0096844447, Final residual = 1.4928566e-07, No Iterations 2
DILUPBiCG:  Solving for h, Initial residual = 0.012343368, Final residual = 2.7472505e-06, No Iterations 4
GAMG:  Solving for p_rgh, Initial residual = 0.026640911, Final residual = 1.5637209e-05, No Iterations 5
time step continuity errors : sum local = 0.00012685461, global = 2.3691103e-06, cumulative = -4.250865e-05
ExecutionTime = 116.61 s  ClockTime = 117 s
Inflow      : -1.046401e-07 [kg/s]
Outflow     : -1.043357e-07 [kg/s]
EnergyInflow  : -0.031580381 [W]
EnergyOutflow : -0.031483449 [W]
rho max/avg/min : 1.1764041 1.1605433 1.1387647
T   max/avg/min : 309.88772 304.11683 300.00193
P   max/avg/min : 101325 101321.69 101313.67
Prg max/avg/min : 101325.16 101325 101324.8
U   max/avg/min : 0.00032551647 -0.00021090761 -0.0034878506
Prg max-min : 0.36226387
 
Iteration Number = 69

DILUPBiCG:  Solving for Ux, Initial residual = 0.031807157, Final residual = 6.2489396e-07, No Iterations 2
DILUPBiCG:  Solving for Uy, Initial residual = 0.031751029, Final residual = 4.3204783e-07, No Iterations 2
DILUPBiCG:  Solving for Uz, Initial residual = 0.0093381297, Final residual = 1.3618596e-07, No Iterations 2
DILUPBiCG:  Solving for h, Initial residual = 0.012202913, Final residual = 2.7546676e-06, No Iterations 4
GAMG:  Solving for p_rgh, Initial residual = 0.031267992, Final residual = 1.6447352e-05, No Iterations 5
time step continuity errors : sum local = 0.00013556353, global = 2.5729792e-06, cumulative = -3.9935671e-05
ExecutionTime = 118.42 s  ClockTime = 119 s
Inflow      : -1.0947288e-07 [kg/s]
Outflow     : -1.0914229e-07 [kg/s]
EnergyInflow  : -0.033038916 [W]
EnergyOutflow : -0.032934058 [W]
rho max/avg/min : 1.1764036 1.1602904 1.1383814
T   max/avg/min : 309.99215 304.18368 300.00207
P   max/avg/min : 101325 101321.69 101313.67
Prg max/avg/min : 101325.16 101325 101324.79
U   max/avg/min : 0.00033225917 -0.00022275189 -0.0036234203
Prg max-min : 0.36504604
 
Iteration Number = 70

DILUPBiCG:  Solving for Ux, Initial residual = 0.032963519, Final residual = 7.5858936e-07, No Iterations 2
DILUPBiCG:  Solving for Uy, Initial residual = 0.042837785, Final residual = 6.1636996e-07, No Iterations 2
DILUPBiCG:  Solving for Uz, Initial residual = 0.0090022083, Final residual = 1.3674969e-07, No Iterations 2
DILUPBiCG:  Solving for h, Initial residual = 0.012059069, Final residual = 2.6888845e-06, No Iterations 4
GAMG:  Solving for p_rgh, Initial residual = 0.027969774, Final residual = 2.2591589e-05, No Iterations 5
time step continuity errors : sum local = 0.00018858349, global = 8.4493168e-07, cumulative = -3.9090739e-05
ExecutionTime = 120.22 s  ClockTime = 121 s
Inflow      : -1.141386e-07 [kg/s]
[...]
time step continuity errors : sum local = 0.0012402459, global = 2.7736301e-06, cumulative = -0.0049442845
ExecutionTime = 1533.22 s  ClockTime = 1534 s
Inflow      : -1.3206729e-05 [kg/s]
Outflow     : -1.3206372e-05 [kg/s]
EnergyInflow  : -3.985791 [W]
EnergyOutflow : -3.9856832 [W]
rho max/avg/min : 1.1757938 0.98008695 0.90259753
T   max/avg/min : 390.99769 361.22211 300.13026
P   max/avg/min : 101325 101322.32 101315.75
Prg max/avg/min : 101327.23 101325.14 101324.6
U   max/avg/min : 0.046787684 -0.050960124 -0.32596752
Prg max-min : 2.6378557
 
Iteration Number = 995

DILUPBiCG:  Solving for Ux, Initial residual = 0.016988336, Final residual = 4.1579788e-07, No Iterations 2
DILUPBiCG:  Solving for Uy, Initial residual = 0.042133083, Final residual = 1.2069108e-06, No Iterations 2
DILUPBiCG:  Solving for Uz, Initial residual = 0.00018867882, Final residual = 4.0648656e-07, No Iterations 1
DILUPBiCG:  Solving for h, Initial residual = 0.0017698327, Final residual = 3.0138832e-07, No Iterations 6
GAMG:  Solving for p_rgh, Initial residual = 0.098353909, Final residual = 4.4131006e-05, No Iterations 3
time step continuity errors : sum local = 0.0012384761, global = 5.0858387e-06, cumulative = -0.0049391987
ExecutionTime = 1534.67 s  ClockTime = 1535 s
Inflow      : -1.3205295e-05 [kg/s]
Outflow     : -1.3204641e-05 [kg/s]
EnergyInflow  : -3.9853581 [W]
EnergyOutflow : -3.9851607 [W]
rho max/avg/min : 1.1757938 0.97994164 0.90241539
T   max/avg/min : 391.07663 361.2771 300.13027
P   max/avg/min : 101325 101322.32 101315.75
Prg max/avg/min : 101327.24 101325.14 101324.6
U   max/avg/min : 0.04697291 -0.050961774 -0.32592509
Prg max-min : 2.6399937
 
Iteration Number = 996

DILUPBiCG:  Solving for Ux, Initial residual = 0.016523044, Final residual = 3.7607272e-07, No Iterations 2
DILUPBiCG:  Solving for Uy, Initial residual = 0.04214835, Final residual = 1.1996739e-06, No Iterations 2
DILUPBiCG:  Solving for Uz, Initial residual = 0.00018755682, Final residual = 4.2308713e-07, No Iterations 1
DILUPBiCG:  Solving for h, Initial residual = 0.0017647176, Final residual = 1.1823038e-06, No Iterations 4
GAMG:  Solving for p_rgh, Initial residual = 0.097487529, Final residual = 4.3166034e-05, No Iterations 3
time step continuity errors : sum local = 0.0012132154, global = 6.7796173e-06, cumulative = -0.004932419
ExecutionTime = 1536.08 s  ClockTime = 1536 s
Inflow      : -1.3203217e-05 [kg/s]
Outflow     : -1.3202346e-05 [kg/s]
EnergyInflow  : -3.984731 [W]
EnergyOutflow : -3.9844679 [W]
rho max/avg/min : 1.1757937 0.9797963 0.90223331
T   max/avg/min : 391.15558 361.33213 300.13029
P   max/avg/min : 101325 101322.32 101315.75
Prg max/avg/min : 101327.24 101325.14 101324.59
U   max/avg/min : 0.047183183 -0.050963237 -0.32587779
Prg max-min : 2.6412913
 
Iteration Number = 997

DILUPBiCG:  Solving for Ux, Initial residual = 0.016762822, Final residual = 3.9476312e-07, No Iterations 2
DILUPBiCG:  Solving for Uy, Initial residual = 0.042658552, Final residual = 1.1707219e-06, No Iterations 2
DILUPBiCG:  Solving for Uz, Initial residual = 0.00018774799, Final residual = 4.0038608e-07, No Iterations 1
DILUPBiCG:  Solving for h, Initial residual = 0.0017631522, Final residual = 1.3654524e-06, No Iterations 4
GAMG:  Solving for p_rgh, Initial residual = 0.095741408, Final residual = 4.5258727e-05, No Iterations 3
time step continuity errors : sum local = 0.0012719716, global = 6.1279276e-06, cumulative = -0.0049262911
ExecutionTime = 1537.46 s  ClockTime = 1538 s
Inflow      : -1.3201647e-05 [kg/s]
Outflow     : -1.320086e-05 [kg/s]
EnergyInflow  : -3.9842574 [W]
EnergyOutflow : -3.9840196 [W]
rho max/avg/min : 1.1757937 0.97965087 0.90205137
T   max/avg/min : 391.2345 361.38721 300.1303
P   max/avg/min : 101325 101322.32 101315.75
Prg max/avg/min : 101327.24 101325.14 101324.6
U   max/avg/min : 0.047413271 -0.050964582 -0.32587344
Prg max-min : 2.6426501
 
Iteration Number = 998

DILUPBiCG:  Solving for Ux, Initial residual = 0.016655467, Final residual = 3.8987746e-07, No Iterations 2
DILUPBiCG:  Solving for Uy, Initial residual = 0.043015112, Final residual = 1.1904376e-06, No Iterations 2
DILUPBiCG:  Solving for Uz, Initial residual = 0.00018824357, Final residual = 4.4538593e-07, No Iterations 1
DILUPBiCG:  Solving for h, Initial residual = 0.0017613017, Final residual = 1.188412e-06, No Iterations 4
GAMG:  Solving for p_rgh, Initial residual = 0.096356079, Final residual = 4.4042966e-05, No Iterations 3
time step continuity errors : sum local = 0.0012373992, global = 4.5772151e-06, cumulative = -0.0049217139
ExecutionTime = 1538.85 s  ClockTime = 1539 s
Inflow      : -1.3199537e-05 [kg/s]
Outflow     : -1.3198949e-05 [kg/s]
EnergyInflow  : -3.9836203 [W]
EnergyOutflow : -3.9834427 [W]
rho max/avg/min : 1.1757936 0.97950569 0.90186951
T   max/avg/min : 391.31342 361.4422 300.13031
P   max/avg/min : 101325 101322.32 101315.75
Prg max/avg/min : 101327.24 101325.14 101324.59
U   max/avg/min : 0.047578453 -0.050965778 -0.32590116
Prg max-min : 2.6431996
 
Iteration Number = 999

DILUPBiCG:  Solving for Ux, Initial residual = 0.016858649, Final residual = 4.0490313e-07, No Iterations 2
DILUPBiCG:  Solving for Uy, Initial residual = 0.043033938, Final residual = 1.21118e-06, No Iterations 2
DILUPBiCG:  Solving for Uz, Initial residual = 0.00018712085, Final residual = 4.023999e-07, No Iterations 1
DILUPBiCG:  Solving for h, Initial residual = 0.0017553564, Final residual = 2.8405386e-07, No Iterations 6
GAMG:  Solving for p_rgh, Initial residual = 0.094728127, Final residual = 4.5765211e-05, No Iterations 3
time step continuity errors : sum local = 0.0012864732, global = 1.5187727e-06, cumulative = -0.0049201951
ExecutionTime = 1540.28 s  ClockTime = 1541 s
Inflow      : -1.3197995e-05 [kg/s]
Outflow     : -1.31978e-05 [kg/s]
EnergyInflow  : -3.983155 [W]
EnergyOutflow : -3.9830959 [W]
rho max/avg/min : 1.1757936 0.97936071 0.90168782
T   max/avg/min : 391.39229 361.49714 300.13032
P   max/avg/min : 101325 101322.32 101315.75
Prg max/avg/min : 101327.24 101325.14 101324.59
U   max/avg/min : 0.047714268 -0.050966911 -0.32591628
Prg max-min : 2.6455475
 
Iteration Number = 1000

DILUPBiCG:  Solving for Ux, Initial residual = 0.016393972, Final residual = 3.9237392e-07, No Iterations 2
DILUPBiCG:  Solving for Uy, Initial residual = 0.042242578, Final residual = 1.2066785e-06, No Iterations 2
DILUPBiCG:  Solving for Uz, Initial residual = 0.0001872666, Final residual = 4.5457223e-07, No Iterations 1
DILUPBiCG:  Solving for h, Initial residual = 0.0017532161, Final residual = 1.218949e-06, No Iterations 4
GAMG:  Solving for p_rgh, Initial residual = 0.096366538, Final residual = 4.3221647e-05, No Iterations 3
time step continuity errors : sum local = 0.0012125138, global = -5.4431967e-07, cumulative = -0.0049207394
ExecutionTime = 1544.13 s  ClockTime = 1545 s
Inflow      : -1.3195983e-05 [kg/s]
Outflow     : -1.3196053e-05 [kg/s]
EnergyInflow  : -3.982548 [W]
EnergyOutflow : -3.9825689 [W]
rho max/avg/min : 1.1757936 0.97921576 0.90150616
T   max/avg/min : 391.47119 361.55209 300.13033
P   max/avg/min : 101325 101322.32 101315.76
Prg max/avg/min : 101327.24 101325.14 101324.59
U   max/avg/min : 0.047883744 -0.050968089 -0.32590801
Prg max-min : 2.6488932
 
Iteration Number = 1001

DILUPBiCG:  Solving for Ux, Initial residual = 0.016449807, Final residual = 3.9180758e-07, No Iterations 2
DILUPBiCG:  Solving for Uy, Initial residual = 0.041576293, Final residual = 1.1672333e-06, No Iterations 2
DILUPBiCG:  Solving for Uz, Initial residual = 0.00018668856, Final residual = 4.1236192e-07, No Iterations 1
DILUPBiCG:  Solving for h, Initial residual = 0.0017513989, Final residual = 1.3502881e-06, No Iterations 4
GAMG:  Solving for p_rgh, Initial residual = 0.096975983, Final residual = 4.4484157e-05, No Iterations 3
time step continuity errors : sum local = 0.0012487645, global = -7.2944677e-07, cumulative = -0.0049214689
ExecutionTime = 1545.52 s  ClockTime = 1546 s
Inflow      : -1.3194534e-05 [kg/s]
Outflow     : -1.3194628e-05 [kg/s]
EnergyInflow  : -3.9821107 [W]
EnergyOutflow : -3.9821388 [W]
rho max/avg/min : 1.1757936 0.97907067 0.90132467
T   max/avg/min : 391.55004 361.60711 300.13034
P   max/avg/min : 101325 101322.32 101315.76
Prg max/avg/min : 101327.24 101325.14 101324.59
U   max/avg/min : 0.048069396 -0.050969345 -0.32587738
Prg max-min : 2.6508969
 
Iteration Number = 1002

DILUPBiCG:  Solving for Ux, Initial residual = 0.016554308, Final residual = 3.9332432e-07, No Iterations 2
DILUPBiCG:  Solving for Uy, Initial residual = 0.04216105, Final residual = 1.1799471e-06, No Iterations 2
DILUPBiCG:  Solving for Uz, Initial residual = 0.00018613849, Final residual = 4.0567042e-07, No Iterations 1
DILUPBiCG:  Solving for h, Initial residual = 0.0017495963, Final residual = 1.183645e-06, No Iterations 4
GAMG:  Solving for p_rgh, Initial residual = 0.09601181, Final residual = 4.324145e-05, No Iterations 3
time step continuity errors : sum local = 0.0012130328, global = -2.020339e-06, cumulative = -0.0049234892
ExecutionTime = 1546.9 s  ClockTime = 1547 s
Inflow      : -1.3192595e-05 [kg/s]
Outflow     : -1.3192855e-05 [kg/s]
EnergyInflow  : -3.9815255 [W]
EnergyOutflow : -3.9816036 [W]
rho max/avg/min : 1.1757936 0.97892581 0.90114324
T   max/avg/min : 391.6289 361.66206 300.13035
P   max/avg/min : 101325 101322.32 101315.76
Prg max/avg/min : 101327.24 101325.14 101324.59
U   max/avg/min : 0.048265733 -0.05097056 -0.32578178
Prg max-min : 2.6528004
 
Iteration Number = 1003

DILUPBiCG:  Solving for Ux, Initial residual = 0.016606396, Final residual = 3.9547071e-07, No Iterations 2
DILUPBiCG:  Solving for Uy, Initial residual = 0.042084069, Final residual = 1.162665e-06, No Iterations 2
DILUPBiCG:  Solving for Uz, Initial residual = 0.00018597128, Final residual = 3.973396e-07, No Iterations 1
DILUPBiCG:  Solving for h, Initial residual = 0.0017504293, Final residual = 3.0493013e-07, No Iterations 6
GAMG:  Solving for p_rgh, Initial residual = 0.096521999, Final residual = 4.6930602e-05, No Iterations 3
time step continuity errors : sum local = 0.0013155639, global = -1.3779545e-06, cumulative = -0.0049248672
ExecutionTime = 1548.34 s  ClockTime = 1549 s
Inflow      : -1.3191154e-05 [kg/s]
Outflow     : -1.3191331e-05 [kg/s]
EnergyInflow  : -3.9810904 [W]
EnergyOutflow : -3.9811436 [W]
rho max/avg/min : 1.1757935 0.97878124 0.90096198
T   max/avg/min : 391.70771 361.71692 300.13036
P   max/avg/min : 101325 101322.32 101315.76
Prg max/avg/min : 101327.24 101325.14 101324.59
U   max/avg/min : 0.048443891 -0.050971635 -0.3257418
Prg max-min : 2.6525175
 
Iteration Number = 1004

DILUPBiCG:  Solving for Ux, Initial residual = 0.016810602, Final residual = 3.9268833e-07, No Iterations 2
DILUPBiCG:  Solving for Uy, Initial residual = 0.042508953, Final residual = 1.1696589e-06, No Iterations 2
DILUPBiCG:  Solving for Uz, Initial residual = 0.00018559825, Final residual = 4.3628569e-07, No Iterations 1
DILUPBiCG:  Solving for h, Initial residual = 0.0017490222, Final residual = 1.6257664e-06, No Iterations 4
GAMG:  Solving for p_rgh, Initial residual = 0.099475478, Final residual = 4.7331635e-05, No Iterations 3
time step continuity errors : sum local = 0.0013301693, global = -5.2575233e-06, cumulative = -0.0049301247
ExecutionTime = 1549.73 s  ClockTime = 1550 s
Inflow      : -1.3189192e-05 [kg/s]
Outflow     : -1.3189868e-05 [kg/s]
EnergyInflow  : -3.9804983 [W]
EnergyOutflow : -3.980702 [W]
rho max/avg/min : 1.1757935 0.97863633 0.90078084
T   max/avg/min : 391.78651 361.77192 300.13037
P   max/avg/min : 101325 101322.32 101315.76
Prg max/avg/min : 101327.24 101325.14 101324.59
U   max/avg/min : 0.048641021 -0.050972651 -0.32574392
Prg max-min : 2.6539343
 
Iteration Number = 1005

DILUPBiCG:  Solving for Ux, Initial residual = 0.016939288, Final residual = 3.9403147e-07, No Iterations 2
DILUPBiCG:  Solving for Uy, Initial residual = 0.04348849, Final residual = 1.1743843e-06, No Iterations 2
DILUPBiCG:  Solving for Uz, Initial residual = 0.00018458567, Final residual = 4.1335315e-07, No Iterations 1
DILUPBiCG:  Solving for h, Initial residual = 0.0017473364, Final residual = 1.1772798e-06, No Iterations 4
GAMG:  Solving for p_rgh, Initial residual = 0.096245216, Final residual = 4.4458866e-05, No Iterations 3
time step continuity errors : sum local = 0.0012478543, global = -5.9687409e-06, cumulative = -0.0049360934
ExecutionTime = 1551.11 s  ClockTime = 1552 s
Inflow      : -1.3187792e-05 [kg/s]
Outflow     : -1.3188559e-05 [kg/s]
EnergyInflow  : -3.9800757 [W]
EnergyOutflow : -3.980307 [W]
rho max/avg/min : 1.1757935 0.97849174 0.90059974
T   max/avg/min : 391.86533 361.82682 300.13038
P   max/avg/min : 101325 101322.32 101315.76
Prg max/avg/min : 101327.25 101325.14 101324.59
U   max/avg/min : 0.048840908 -0.050973777 -0.32570765
Prg max-min : 2.6549834
 
Iteration Number = 1006

DILUPBiCG:  Solving for Ux, Initial residual = 0.016949389, Final residual = 3.8336734e-07, No Iterations 2
DILUPBiCG:  Solving for Uy, Initial residual = 0.043023997, Final residual = 1.1499355e-06, No Iterations 2
DILUPBiCG:  Solving for Uz, Initial residual = 0.00018543771, Final residual = 4.4806298e-07, No Iterations 1
DILUPBiCG:  Solving for h, Initial residual = 0.0017464263, Final residual = 1.1656608e-06, No Iterations 4
GAMG:  Solving for p_rgh, Initial residual = 0.095957949, Final residual = 4.4104819e-05, No Iterations 3
time step continuity errors : sum local = 0.0012382484, global = -1.1912234e-05, cumulative = -0.0049480057
ExecutionTime = 1552.53 s  ClockTime = 1553 s
Inflow      : -1.3185922e-05 [kg/s]
Outflow     : -1.3187452e-05 [kg/s]
EnergyInflow  : -3.9795113 [W]
EnergyOutflow : -3.979973 [W]
rho max/avg/min : 1.1757935 0.97834724 0.90041875
T   max/avg/min : 391.94412 361.8817 300.13039
P   max/avg/min : 101325 101322.32 101315.76
Prg max/avg/min : 101327.25 101325.14 101324.59
U   max/avg/min : 0.049010542 -0.050974887 -0.3257332
Prg max-min : 2.6564187
 
Iteration Number = 1007

DILUPBiCG:  Solving for Ux, Initial residual = 0.016995513, Final residual = 3.7360551e-07, No Iterations 2
DILUPBiCG:  Solving for Uy, Initial residual = 0.043023996, Final residual = 1.1651723e-06, No Iterations 2
DILUPBiCG:  Solving for Uz, Initial residual = 0.0001851723, Final residual = 4.3609884e-07, No Iterations 1
DILUPBiCG:  Solving for h, Initial residual = 0.0017486655, Final residual = 1.360409e-06, No Iterations 4
GAMG:  Solving for p_rgh, Initial residual = 0.097562257, Final residual = 4.6253676e-05, No Iterations 3
time step continuity errors : sum local = 0.0012993453, global = -1.0316232e-05, cumulative = -0.0049583219
ExecutionTime = 1553.93 s  ClockTime = 1554 s
Inflow      : -1.3184699e-05 [kg/s]
Outflow     : -1.3186025e-05 [kg/s]
EnergyInflow  : -3.9791424 [W]
EnergyOutflow : -3.9795422 [W]
rho max/avg/min : 1.1757934 0.97820264 0.9002379
T   max/avg/min : 392.02288 361.93663 300.13039
P   max/avg/min : 101325 101322.32 101315.76
Prg max/avg/min : 101327.25 101325.14 101324.59
U   max/avg/min : 0.049171658 -0.050976229 -0.32584255
Prg max-min : 2.6592024
 
Iteration Number = 1008

DILUPBiCG:  Solving for Ux, Initial residual = 0.017254682, Final residual = 4.0274247e-07, No Iterations 2
DILUPBiCG:  Solving for Uy, Initial residual = 0.042890362, Final residual = 1.1797955e-06, No Iterations 2
DILUPBiCG:  Solving for Uz, Initial residual = 0.00018575579, Final residual = 4.5023398e-07, No Iterations 1
DILUPBiCG:  Solving for h, Initial residual = 0.0017434338, Final residual = 1.2333645e-06, No Iterations 4
GAMG:  Solving for p_rgh, Initial residual = 0.095984584, Final residual = 4.8092876e-05, No Iterations 3
time step continuity errors : sum local = 0.0013528607, global = -1.0014276e-05, cumulative = -0.0049683362
ExecutionTime = 1555.33 s  ClockTime = 1556 s
Inflow      : -1.3182882e-05 [kg/s]
Outflow     : -1.3184169e-05 [kg/s]
EnergyInflow  : -3.978594 [W]
EnergyOutflow : -3.9789821 [W]
rho max/avg/min : 1.1757934 0.97805839 0.90005711
T   max/avg/min : 392.10166 361.99146 300.1304
P   max/avg/min : 101325 101322.32 101315.77
Prg max/avg/min : 101327.25 101325.14 101324.59
U   max/avg/min : 0.04935752 -0.050977555 -0.32584648
Prg max-min : 2.6603728
 
Iteration Number = 1009

DILUPBiCG:  Solving for Ux, Initial residual = 0.016693011, Final residual = 3.8934366e-07, No Iterations 2
DILUPBiCG:  Solving for Uy, Initial residual = 0.042170968, Final residual = 1.1653945e-06, No Iterations 2
DILUPBiCG:  Solving for Uz, Initial residual = 0.00018464914, Final residual = 4.1906499e-07, No Iterations 1
DILUPBiCG:  Solving for h, Initial residual = 0.0017399252, Final residual = 1.5300518e-06, No Iterations 4
GAMG:  Solving for p_rgh, Initial residual = 0.095774118, Final residual = 4.5891624e-05, No Iterations 3
time step continuity errors : sum local = 0.0012884389, global = -4.1437705e-06, cumulative = -0.00497248
ExecutionTime = 1556.76 s  ClockTime = 1557 s
Inflow      : -1.3181559e-05 [kg/s]
Outflow     : -1.3182092e-05 [kg/s]
EnergyInflow  : -3.9781948 [W]
EnergyOutflow : -3.9783553 [W]
rho max/avg/min : 1.1757934 0.97791423 0.8998764
T   max/avg/min : 392.18042 362.04626 300.13041
P   max/avg/min : 101325 101322.32 101315.77
Prg max/avg/min : 101327.25 101325.14 101324.59
U   max/avg/min : 0.049575564 -0.050978962 -0.32585355
Prg max-min : 2.6627254
 
Iteration Number = 1010

DILUPBiCG:  Solving for Ux, Initial residual = 0.01664518, Final residual = 3.8257435e-07, No Iterations 2
DILUPBiCG:  Solving for Uy, Initial residual = 0.041788393, Final residual = 1.160588e-06, No Iterations 2
DILUPBiCG:  Solving for Uz, Initial residual = 0.00018380706, Final residual = 4.0177086e-07, No Iterations 1
DILUPBiCG:  Solving for h, Initial residual = 0.0017348986, Final residual = 1.1634469e-06, No Iterations 4
GAMG:  Solving for p_rgh, Initial residual = 0.094179679, Final residual = 4.4700865e-05, No Iterations 3
time step continuity errors : sum local = 0.0012551844, global = -1.443914e-06, cumulative = -0.0049739239
ExecutionTime = 1558.23 s  ClockTime = 1559 s
Inflow      : -1.3179577e-05 [kg/s]
Outflow     : -1.3179762e-05 [kg/s]
EnergyInflow  : -3.9775965 [W]
EnergyOutflow : -3.9776523 [W]
rho max/avg/min : 1.1757934 0.97777004 0.89969585
T   max/avg/min : 392.25916 362.10109 300.13042
P   max/avg/min : 101325 101322.32 101315.77
Prg max/avg/min : 101327.25 101325.14 101324.59
U   max/avg/min : 0.049758037 -0.050980262 -0.32583817
Prg max-min : 2.6643767
 
Iteration Number = 1011

DILUPBiCG:  Solving for Ux, Initial residual = 0.016322334, Final residual = 3.6893499e-07, No Iterations 2
DILUPBiCG:  Solving for Uy, Initial residual = 0.041248647, Final residual = 1.1378672e-06, No Iterations 2
DILUPBiCG:  Solving for Uz, Initial residual = 0.00018426429, Final residual = 3.908141e-07, No Iterations 1
DILUPBiCG:  Solving for h, Initial residual = 0.001736547, Final residual = 1.2751555e-06, No Iterations 4
GAMG:  Solving for p_rgh, Initial residual = 0.096484499, Final residual = 4.4943107e-05, No Iterations 3
time step continuity errors : sum local = 0.0012615276, global = 4.3399965e-06, cumulative = -0.0049695839
ExecutionTime = 1559.66 s  ClockTime = 1560 s
Inflow      : -1.3178027e-05 [kg/s]
Outflow     : -1.317747e-05 [kg/s]
EnergyInflow  : -3.9771289 [W]
EnergyOutflow : -3.9769604 [W]
rho max/avg/min : 1.1757933 0.97762579 0.89951544
T   max/avg/min : 392.33786 362.15596 300.13043
P   max/avg/min : 101325 101322.32 101315.77
Prg max/avg/min : 101327.25 101325.14 101324.59
U   max/avg/min : 0.049936476 -0.050981395 -0.32588771
Prg max-min : 2.6659641
 
Iteration Number = 1012

DILUPBiCG:  Solving for Ux, Initial residual = 0.016571906, Final residual = 3.8826201e-07, No Iterations 2
DILUPBiCG:  Solving for Uy, Initial residual = 0.042145929, Final residual = 1.1466633e-06, No Iterations 2
DILUPBiCG:  Solving for Uz, Initial residual = 0.00018363678, Final residual = 4.2396976e-07, No Iterations 1
