/*---------------------------------------------------------------------------*\
| =========                 |                                                 |
| \\      /  F ield         | OpenFOAM: The Open Source CFD Toolbox           |
|  \\    /   O peration     | Version:  4.0                                   |
|   \\  /    A nd           | Web:      www.OpenFOAM.org                      |
|    \\/     M anipulation  |                                                 |
\*---------------------------------------------------------------------------*/
Build  : 4.0-665f1db4c1f1
Exec   : pupoBuoyantSimpleFoam
Date   : Oct 05 2016
Time   : 03:36:41
Host   : "FAB2000"
PID    : 12307
Case   : /home/pedro/Documents/ThesisProject/OpenFoam/validation7rod/justfluid
nProcs : 1
sigFpe : Enabling floating point exception trapping (FOAM_SIGFPE).
fileModificationChecking : Monitoring run-time modified files using timeStampMaster
allowSystemOperations : Allowing user-supplied system call operations

// * * * * * * * * * * * * * * * * * * * * * * * * * * * * * * * * * * * * * //
Create time

Create mesh for time = 0


SIMPLE: convergence criteria
    field p_rgh	 tolerance 0.0001
    field Uz	 tolerance 0.0001
    field h	 tolerance 0.0001

Reading thermophysical properties

Selecting thermodynamics package 
{
    type            heRhoThermo;
    mixture         pureMixture;
    transport       sutherland;
    thermo          hConst;
    equationOfState perfectGas;
    specie          specie;
    energy          sensibleEnthalpy;
}


Reading g

Reading hRef
Calculating field g.h

Selecting turbulence model type laminar
No MRF models present

Selecting radiationModel none
rho max/avg/min : 1.176411 1.1763447 1.1762784
T   max/avg/min : 300 300 300
P   max/avg/min : 101324.94 101319.23 101313.52
Prg max/avg/min : 101325 101325 101325
U   max/avg/min : 0 0 0
Prg max-min : 0.00065059763
 
No finite volume options present


Starting Iteration loop

Iteration Number = 1

DILUPBiCG:  Solving for Ux, Initial residual = 0.99999998, Final residual = 0.0007732948, No Iterations 2
DILUPBiCG:  Solving for Uy, Initial residual = 0.99999998, Final residual = 0.00064916652, No Iterations 2
DILUPBiCG:  Solving for Uz, Initial residual = 1, Final residual = 0.000553487, No Iterations 2
DILUPBiCG:  Solving for h, Initial residual = 1, Final residual = 0.00020316975, No Iterations 5
sngrad(rho) : 2.3972357 0.23842616 -0.00013394546
GAMG:  Solving for p_rgh, Initial residual = 0.99998723, Final residual = 0.038821065, No Iterations 2
sngrad(rho) : 2.3972357 0.23842616 -0.00013394546
sngrad(rho) : 2.3972357 0.23842616 -0.00013394546
time step continuity errors : sum local = 0.31481619, global = 0.0012461765, cumulative = 0.0012461765
ExecutionTime = 0.58 s  ClockTime = 1 s
Inflow      : -2.9636696e-09 [kg/s]
Outflow     : 1.5714787e-07 [kg/s]
EnergyInflow  : -0.0008944355 [W]
EnergyOutflow : 0.047427226 [W]
EnergyBalance : 0.048321662 [W]
rho max/avg/min : 1.176411 1.175152 1.1642916
T   max/avg/min : 303.08862 300.30575 300
P   max/avg/min : 101324.94 101319.23 101313.52
Prg max/avg/min : 101325 101325 101324.96
U   max/avg/min : 0.0058388063 7.8976325e-06 -0.00010983093
 
Iteration Number = 2

DILUPBiCG:  Solving for Ux, Initial residual = 0.45069263, Final residual = 0.00010096163, No Iterations 2
DILUPBiCG:  Solving for Uy, Initial residual = 0.360769, Final residual = 9.2107069e-05, No Iterations 2
DILUPBiCG:  Solving for Uz, Initial residual = 0.35699134, Final residual = 0.00012065898, No Iterations 2
DILUPBiCG:  Solving for h, Initial residual = 0.18746256, Final residual = 6.2404985e-05, No Iterations 5
sngrad(rho) : 1.2648703 -19.139097 -58.803893
GAMG:  Solving for p_rgh, Initial residual = 0.77212304, Final residual = 0.037147307, No Iterations 2
sngrad(rho) : 1.2648703 -19.139097 -58.803893
sngrad(rho) : 1.2648703 -19.139097 -58.803893
time step continuity errors : sum local = 1.225102, global = 0.0039198415, cumulative = 0.005166018
ExecutionTime = 0.99 s  ClockTime = 1 s
Inflow      : -1.0025301e-08 [kg/s]
Outflow     : 4.9360468e-07 [kg/s]
EnergyInflow  : -0.0030256358 [W]
EnergyOutflow : 0.14922595 [W]
EnergyBalance : 0.15225159 [W]
rho max/avg/min : 1.176411 1.1740088 1.1579392
T   max/avg/min : 304.7551 300.60046 300
P   max/avg/min : 101324.94 101319.24 101313.52
Prg max/avg/min : 101325.01 101325 101324.88
U   max/avg/min : 0.014406813 2.6741777e-05 -0.0020011168
 
Iteration Number = 3

DILUPBiCG:  Solving for Ux, Initial residual = 0.15508014, Final residual = 4.7751216e-05, No Iterations 2
DILUPBiCG:  Solving for Uy, Initial residual = 0.11674078, Final residual = 3.7122072e-05, No Iterations 2
DILUPBiCG:  Solving for Uz, Initial residual = 0.25842835, Final residual = 0.00010306476, No Iterations 2
DILUPBiCG:  Solving for h, Initial residual = 0.12035404, Final residual = 0.00010765048, No Iterations 6
sngrad(rho) : 0.9177766 0.23958776 -0.043258239
GAMG:  Solving for p_rgh, Initial residual = 0.52635247, Final residual = 0.041183279, No Iterations 2
sngrad(rho) : 0.9177766 0.23958776 -0.043258239
sngrad(rho) : 0.9177766 0.23958776 -0.043258239
time step continuity errors : sum local = 1.8723522, global = 0.0068243513, cumulative = 0.011990369
ExecutionTime = 1.4 s  ClockTime = 2 s
Inflow      : -1.7760514e-08 [kg/s]
Outflow     : 8.5904736e-07 [kg/s]
EnergyInflow  : -0.0053601232 [W]
EnergyOutflow : 0.25996884 [W]
EnergyBalance : 0.26532896 [W]
rho max/avg/min : 1.1766387 1.1728477 1.1535149
T   max/avg/min : 305.92879 300.90083 299.90848
P   max/avg/min : 101324.94 101319.24 101313.52
Prg max/avg/min : 101325.03 101324.99 101324.78
U   max/avg/min : 0.021811792 5.1535262e-05 -0.0046944733
 
Iteration Number = 4

DILUPBiCG:  Solving for Ux, Initial residual = 0.15167988, Final residual = 6.1036004e-05, No Iterations 2
DILUPBiCG:  Solving for Uy, Initial residual = 0.10792413, Final residual = 4.7722943e-05, No Iterations 2
DILUPBiCG:  Solving for Uz, Initial residual = 0.20676733, Final residual = 8.5403567e-05, No Iterations 2
DILUPBiCG:  Solving for h, Initial residual = 0.089911251, Final residual = 2.7271881e-05, No Iterations 5
sngrad(rho) : 0.7800009 -15.87578 -58.788214
GAMG:  Solving for p_rgh, Initial residual = 0.34351014, Final residual = 0.020139614, No Iterations 3
sngrad(rho) : 0.7800009 -15.87578 -58.788214
sngrad(rho) : 0.7800009 -15.87578 -58.788214
time step continuity errors : sum local = 0.94262566, global = 0.010931139, cumulative = 0.022921508
ExecutionTime = 1.83 s  ClockTime = 2 s
Inflow      : -2.4144243e-08 [kg/s]
Outflow     : 1.3803129e-06 [kg/s]
EnergyInflow  : -0.0072867326 [W]
EnergyOutflow : 0.41514916 [W]
EnergyBalance : 0.42243589 [W]
rho max/avg/min : 1.1764958 1.1716526 1.1497512
T   max/avg/min : 306.92377 301.21091 299.94491
P   max/avg/min : 101324.94 101319.24 101313.49
Prg max/avg/min : 101325.03 101324.99 101324.71
U   max/avg/min : 0.0284227 8.3999335e-05 -0.0071796657
 
Iteration Number = 5

DILUPBiCG:  Solving for Ux, Initial residual = 0.28878445, Final residual = 8.717073e-05, No Iterations 2
DILUPBiCG:  Solving for Uy, Initial residual = 0.17188734, Final residual = 4.9423757e-05, No Iterations 2
DILUPBiCG:  Solving for Uz, Initial residual = 0.16718294, Final residual = 7.6386633e-05, No Iterations 2
DILUPBiCG:  Solving for h, Initial residual = 0.069895898, Final residual = 2.124601e-05, No Iterations 5
sngrad(rho) : 0.65398341 -16.644143 -58.784464
GAMG:  Solving for p_rgh, Initial residual = 0.28548416, Final residual = 0.017248202, No Iterations 3
sngrad(rho) : 0.65398341 -16.644143 -58.784464
sngrad(rho) : 0.65398341 -16.644143 -58.784464
time step continuity errors : sum local = 0.76847341, global = 0.015435455, cumulative = 0.038356963
ExecutionTime = 2.26 s  ClockTime = 2 s
Inflow      : -2.9295595e-08 [kg/s]
Outflow     : 1.953886e-06 [kg/s]
EnergyInflow  : -0.0088414107 [W]
EnergyOutflow : 0.58765866 [W]
EnergyBalance : 0.59650007 [W]
rho max/avg/min : 1.1768194 1.1704854 1.1464495
T   max/avg/min : 307.8058 301.51463 299.86245
P   max/avg/min : 101324.94 101319.25 101313.5
Prg max/avg/min : 101325.04 101324.99 101324.69
U   max/avg/min : 0.034837969 0.00012252709 -0.010983402
 
Iteration Number = 6

DILUPBiCG:  Solving for Ux, Initial residual = 0.28595701, Final residual = 8.6620269e-05, No Iterations 2
DILUPBiCG:  Solving for Uy, Initial residual = 0.19756696, Final residual = 7.1039705e-05, No Iterations 2
DILUPBiCG:  Solving for Uz, Initial residual = 0.12721112, Final residual = 6.0888488e-05, No Iterations 2
DILUPBiCG:  Solving for h, Initial residual = 0.058354478, Final residual = 1.3476346e-05, No Iterations 5
sngrad(rho) : 0.64756585 -16.895249 -58.77095
GAMG:  Solving for p_rgh, Initial residual = 0.3452531, Final residual = 0.02445482, No Iterations 2
sngrad(rho) : 0.64756585 -16.895249 -58.77095
sngrad(rho) : 0.64756585 -16.895249 -58.77095
time step continuity errors : sum local = 1.0203248, global = 0.0199984, cumulative = 0.058355363
ExecutionTime = 2.67 s  ClockTime = 3 s
Inflow      : -3.5469379e-08 [kg/s]
Outflow     : 2.5339697e-06 [kg/s]
EnergyInflow  : -0.010704659 [W]
EnergyOutflow : 0.76148225 [W]
EnergyBalance : 0.77218691 [W]
rho max/avg/min : 1.1774468 1.1693192 1.1435786
T   max/avg/min : 308.57932 301.81896 299.7027
P   max/avg/min : 101324.94 101319.25 101313.53
Prg max/avg/min : 101325.04 101324.99 101324.69
U   max/avg/min : 0.041317674 0.00016323932 -0.016354968
 
Iteration Number = 7

DILUPBiCG:  Solving for Ux, Initial residual = 0.11454368, Final residual = 5.6957707e-05, No Iterations 2
DILUPBiCG:  Solving for Uy, Initial residual = 0.12054621, Final residual = 7.9915576e-05, No Iterations 2
DILUPBiCG:  Solving for Uz, Initial residual = 0.099037096, Final residual = 4.739652e-05, No Iterations 2
DILUPBiCG:  Solving for h, Initial residual = 0.050695207, Final residual = 1.1327251e-05, No Iterations 5
sngrad(rho) : 1.151858 -17.681897 -58.755269
GAMG:  Solving for p_rgh, Initial residual = 0.28194717, Final residual = 0.021734567, No Iterations 2
sngrad(rho) : 1.151858 -17.681897 -58.755269
sngrad(rho) : 1.151858 -17.681897 -58.755269
time step continuity errors : sum local = 0.85573554, global = 0.02534691, cumulative = 0.083702273
ExecutionTime = 3.09 s  ClockTime = 3 s
Inflow      : -4.2806821e-08 [kg/s]
Outflow     : 3.2138207e-06 [kg/s]
EnergyInflow  : -0.012919099 [W]
EnergyOutflow : 0.96462484 [W]
EnergyBalance : 0.97754394 [W]
rho max/avg/min : 1.1786842 1.1681426 1.140935
T   max/avg/min : 309.29402 302.12674 299.38806
P   max/avg/min : 101324.94 101319.26 101313.55
Prg max/avg/min : 101325.05 101324.99 101324.69
U   max/avg/min : 0.048258154 0.00020577804 -0.022999203
 
Iteration Number = 8

DILUPBiCG:  Solving for Ux, Initial residual = 0.1377624, Final residual = 6.2189953e-05, No Iterations 2
DILUPBiCG:  Solving for Uy, Initial residual = 0.19779954, Final residual = 0.00010644786, No Iterations 2
DILUPBiCG:  Solving for Uz, Initial residual = 0.084820208, Final residual = 4.1639511e-05, No Iterations 2
DILUPBiCG:  Solving for h, Initial residual = 0.044790921, Final residual = 1.0027331e-05, No Iterations 5
sngrad(rho) : 1.5095591 -17.820166 -58.723378
GAMG:  Solving for p_rgh, Initial residual = 0.17950945, Final residual = 0.015277471, No Iterations 3
sngrad(rho) : 1.5095591 -17.820166 -58.723378
sngrad(rho) : 1.5095591 -17.820166 -58.723378
time step continuity errors : sum local = 0.60903962, global = -0.013798546, cumulative = 0.069903727
ExecutionTime = 3.5 s  ClockTime = 4 s
Inflow      : 5.7168266e-06 [kg/s]
Outflow     : 3.9439587e-06 [kg/s]
EnergyInflow  : 1.7253383 [W]
EnergyOutflow : 1.1826261 [W]
EnergyBalance : -0.5427122 [W]
rho max/avg/min : 1.1801614 1.1669678 1.1384955
T   max/avg/min : 309.95796 302.43493 299.01332
P   max/avg/min : 101324.89 101319.19 101313.46
Prg max/avg/min : 101324.98 101324.91 101324.6
U   max/avg/min : 0.066940003 0.00030578179 -0.030211249
 
Iteration Number = 9

DILUPBiCG:  Solving for Ux, Initial residual = 0.13307826, Final residual = 5.2429462e-05, No Iterations 2
DILUPBiCG:  Solving for Uy, Initial residual = 0.20064506, Final residual = 8.7249918e-05, No Iterations 2
DILUPBiCG:  Solving for Uz, Initial residual = 0.11081337, Final residual = 4.8955867e-05, No Iterations 2
DILUPBiCG:  Solving for h, Initial residual = 0.040091012, Final residual = 8.8658158e-06, No Iterations 5
sngrad(rho) : 1.7629627 -18.074406 -58.694582
GAMG:  Solving for p_rgh, Initial residual = 0.17590979, Final residual = 0.010618668, No Iterations 3
sngrad(rho) : 1.7629627 -18.074406 -58.694582
sngrad(rho) : 1.7629627 -18.074406 -58.694582
time step continuity errors : sum local = 0.45371715, global = 0.028239352, cumulative = 0.098143079
ExecutionTime = 3.92 s  ClockTime = 4 s
Inflow      : 1.1111458e-06 [kg/s]
Outflow     : 4.7394007e-06 [kg/s]
EnergyInflow  : 0.33534379 [W]
EnergyOutflow : 1.4220889 [W]
EnergyBalance : 1.0867451 [W]
rho max/avg/min : 1.1809028 1.1658004 1.1361486
T   max/avg/min : 310.59802 302.74187 298.82538
P   max/avg/min : 101324.91 101319.19 101313.41
Prg max/avg/min : 101324.97 101324.91 101324.52
U   max/avg/min : 0.09862588 0.00050641642 -0.035547023
 
Iteration Number = 10

DILUPBiCG:  Solving for Ux, Initial residual = 0.070077035, Final residual = 3.9780856e-05, No Iterations 2
DILUPBiCG:  Solving for Uy, Initial residual = 0.10316378, Final residual = 5.4906209e-05, No Iterations 2
DILUPBiCG:  Solving for Uz, Initial residual = 0.095509149, Final residual = 4.8700016e-05, No Iterations 2
DILUPBiCG:  Solving for h, Initial residual = 0.03640502, Final residual = 2.0728998e-05, No Iterations 5
sngrad(rho) : 1.6521469 -18.503147 -58.668287
GAMG:  Solving for p_rgh, Initial residual = 0.15621994, Final residual = 0.011587207, No Iterations 3
sngrad(rho) : 1.6521469 -18.503147 -58.668287
sngrad(rho) : 1.6521469 -18.503147 -58.668287
time step continuity errors : sum local = 0.53615553, global = -0.02414797, cumulative = 0.073995109
ExecutionTime = 4.33 s  ClockTime = 4 s
Inflow      : 8.5036907e-06 [kg/s]
Outflow     : 5.4011056e-06 [kg/s]
EnergyInflow  : 2.5664138 [W]
EnergyOutflow : 1.6233161 [W]
EnergyBalance : -0.94309772 [W]
rho max/avg/min : 1.1818945 1.1646398 1.1295591
T   max/avg/min : 312.4081 303.04807 298.57455
P   max/avg/min : 101324.87 101319.11 101313.29
Prg max/avg/min : 101324.93 101324.82 101324.36
U   max/avg/min : 0.12110214 0.00082837967 -0.03939317
 
Iteration Number = 11

DILUPBiCG:  Solving for Ux, Initial residual = 0.06892173, Final residual = 4.3131066e-05, No Iterations 2
DILUPBiCG:  Solving for Uy, Initial residual = 0.11001009, Final residual = 6.4207897e-05, No Iterations 2
DILUPBiCG:  Solving for Uz, Initial residual = 0.10870875, Final residual = 5.042317e-05, No Iterations 2
DILUPBiCG:  Solving for h, Initial residual = 0.033456493, Final residual = 7.7174668e-06, No Iterations 5
sngrad(rho) : 2.3561727 -19.093107 -58.638946
GAMG:  Solving for p_rgh, Initial residual = 0.13839247, Final residual = 0.012704278, No Iterations 2
sngrad(rho) : 2.3561727 -19.093107 -58.638946
sngrad(rho) : 2.3561727 -19.093107 -58.638946
time step continuity errors : sum local = 0.62306251, global = 0.021895646, cumulative = 0.095890755
ExecutionTime = 4.74 s  ClockTime = 5 s
Inflow      : 3.4986912e-06 [kg/s]
Outflow     : 6.3118926e-06 [kg/s]
EnergyInflow  : 1.055905 [W]
EnergyOutflow : 1.9018704 [W]
EnergyBalance : 0.84596541 [W]
rho max/avg/min : 1.1826854 1.1634791 1.1203191
T   max/avg/min : 314.98437 303.35491 298.37456
P   max/avg/min : 101324.91 101319.11 101313.25
Prg max/avg/min : 101324.98 101324.82 101324.29
U   max/avg/min : 0.1606548 0.0012780956 -0.043170314
 
Iteration Number = 12

DILUPBiCG:  Solving for Ux, Initial residual = 0.094478404, Final residual = 4.9983038e-05, No Iterations 2
DILUPBiCG:  Solving for Uy, Initial residual = 0.153112, Final residual = 6.458295e-05, No Iterations 2
DILUPBiCG:  Solving for Uz, Initial residual = 0.093213449, Final residual = 4.8997857e-05, No Iterations 2
DILUPBiCG:  Solving for h, Initial residual = 0.0312342, Final residual = 7.1568699e-06, No Iterations 5
sngrad(rho) : 1.9630547 -19.406076 -58.606081
GAMG:  Solving for p_rgh, Initial residual = 0.12872556, Final residual = 0.012329514, No Iterations 2
sngrad(rho) : 1.9630547 -19.406076 -58.606081
sngrad(rho) : 1.9630547 -19.406076 -58.606081
time step continuity errors : sum local = 0.62787824, global = 0.029697988, cumulative = 0.12558874
ExecutionTime = 5.15 s  ClockTime = 5 s
Inflow      : 3.2700478e-06 [kg/s]
Outflow     : 7.0857115e-06 [kg/s]
EnergyInflow  : 0.98690041 [W]
EnergyOutflow : 2.1394169 [W]
EnergyBalance : 1.1525165 [W]
rho max/avg/min : 1.1841479 1.1623099 1.1101607
T   max/avg/min : 317.86656 303.66512 298.00595
P   max/avg/min : 101324.95 101319.12 101313.21
Prg max/avg/min : 101325.03 101324.82 101324.16
U   max/avg/min : 0.18819122 0.0017950684 -0.049649219
 
Iteration Number = 13

DILUPBiCG:  Solving for Ux, Initial residual = 0.078967194, Final residual = 5.2651798e-05, No Iterations 2
DILUPBiCG:  Solving for Uy, Initial residual = 0.15084971, Final residual = 8.544676e-05, No Iterations 2
DILUPBiCG:  Solving for Uz, Initial residual = 0.090833807, Final residual = 5.0557253e-05, No Iterations 2
DILUPBiCG:  Solving for h, Initial residual = 0.029008128, Final residual = 5.6745919e-06, No Iterations 5
sngrad(rho) : 2.8519852 -19.325246 -58.569391
GAMG:  Solving for p_rgh, Initial residual = 0.12694317, Final residual = 0.012174787, No Iterations 2
sngrad(rho) : 2.8519852 -19.325246 -58.569391
sngrad(rho) : 2.8519852 -19.325246 -58.569391
time step continuity errors : sum local = 0.64324364, global = 0.043233374, cumulative = 0.16882212
ExecutionTime = 5.55 s  ClockTime = 6 s
Inflow      : 2.4948402e-06 [kg/s]
Outflow     : 8.0495606e-06 [kg/s]
EnergyInflow  : 0.75294277 [W]
EnergyOutflow : 2.435465 [W]
EnergyBalance : 1.6825223 [W]
rho max/avg/min : 1.1850325 1.1611439 1.1010567
T   max/avg/min : 320.4947 303.97534 297.78337
P   max/avg/min : 101324.98 101319.11 101313.17
Prg max/avg/min : 101325.07 101324.81 101324.03
U   max/avg/min : 0.2339753 0.0023830843 -0.056850242
 
Iteration Number = 14

DILUPBiCG:  Solving for Ux, Initial residual = 0.064529103, Final residual = 4.9244337e-05, No Iterations 2
DILUPBiCG:  Solving for Uy, Initial residual = 0.12309189, Final residual = 0.00011457039, No Iterations 2
DILUPBiCG:  Solving for Uz, Initial residual = 0.092999535, Final residual = 5.2767487e-05, No Iterations 2
DILUPBiCG:  Solving for h, Initial residual = 0.027173691, Final residual = 7.3446264e-06, No Iterations 5
sngrad(rho) : 1.8930226 -19.310433 -58.527375
GAMG:  Solving for p_rgh, Initial residual = 0.11867067, Final residual = 0.0077853954, No Iterations 3
sngrad(rho) : 1.8930226 -19.310433 -58.527375
sngrad(rho) : 1.8930226 -19.310433 -58.527375
time step continuity errors : sum local = 0.42200842, global = 0.042775028, cumulative = 0.21159714
ExecutionTime = 5.96 s  ClockTime = 6 s
Inflow      : 2.9911855e-06 [kg/s]
Outflow     : 8.4870165e-06 [kg/s]
EnergyInflow  : 0.90273978 [W]
EnergyOutflow : 2.5723642 [W]
EnergyBalance : 1.6696244 [W]
rho max/avg/min : 1.1859048 1.1599796 1.090458
T   max/avg/min : 323.60963 304.28596 297.56417
P   max/avg/min : 101324.98 101319 101312.97
Prg max/avg/min : 101325.06 101324.69 101323.7
U   max/avg/min : 0.2520571 0.0031466994 -0.062350524
 
Iteration Number = 15

DILUPBiCG:  Solving for Ux, Initial residual = 0.070473116, Final residual = 5.305158e-05, No Iterations 2
DILUPBiCG:  Solving for Uy, Initial residual = 0.12736149, Final residual = 0.00010602537, No Iterations 2
DILUPBiCG:  Solving for Uz, Initial residual = 0.09810773, Final residual = 5.8941536e-05, No Iterations 2
DILUPBiCG:  Solving for h, Initial residual = 0.02518534, Final residual = 1.3800928e-05, No Iterations 5
sngrad(rho) : 2.7869133 -19.301244 -58.479271
GAMG:  Solving for p_rgh, Initial residual = 0.11006609, Final residual = 0.0099517732, No Iterations 2
sngrad(rho) : 2.7869133 -19.301244 -58.479271
sngrad(rho) : 2.7869133 -19.301244 -58.479271
time step continuity errors : sum local = 0.56181775, global = 0.033721782, cumulative = 0.24531893
ExecutionTime = 6.38 s  ClockTime = 7 s
Inflow      : 4.7335233e-06 [kg/s]
Outflow     : 9.0661731e-06 [kg/s]
EnergyInflow  : 1.4285773 [W]
EnergyOutflow : 2.756533 [W]
EnergyBalance : 1.3279556 [W]
rho max/avg/min : 1.1858329 1.1588388 1.0828563
T   max/avg/min : 325.88063 304.59097 297.58165
P   max/avg/min : 101324.94 101318.88 101312.81
Prg max/avg/min : 101325.01 101324.57 101323.44
U   max/avg/min : 0.29896051 0.0042130214 -0.064431544
 
Iteration Number = 16

DILUPBiCG:  Solving for Ux, Initial residual = 0.075507311, Final residual = 5.2843001e-06, No Iterations 3
DILUPBiCG:  Solving for Uy, Initial residual = 0.11129654, Final residual = 8.9594077e-05, No Iterations 2
DILUPBiCG:  Solving for Uz, Initial residual = 0.085907973, Final residual = 5.3048297e-05, No Iterations 2
DILUPBiCG:  Solving for h, Initial residual = 0.024016341, Final residual = 1.1722021e-05, No Iterations 5
sngrad(rho) : 1.89354 -19.198719 -58.423313
GAMG:  Solving for p_rgh, Initial residual = 0.10013578, Final residual = 0.0097881688, No Iterations 2
sngrad(rho) : 1.89354 -19.198719 -58.423313
sngrad(rho) : 1.89354 -19.198719 -58.423313
time step continuity errors : sum local = 0.56846847, global = 0.034106809, cumulative = 0.27942574
ExecutionTime = 6.78 s  ClockTime = 7 s
Inflow      : 4.8951048e-06 [kg/s]
Outflow     : 9.2772238e-06 [kg/s]
EnergyInflow  : 1.4773426 [W]
EnergyOutflow : 2.8267983 [W]
EnergyBalance : 1.3494556 [W]
rho max/avg/min : 1.1861325 1.1576882 1.0729718
T   max/avg/min : 328.88212 304.89943 297.50599
P   max/avg/min : 101324.92 101318.77 101312.64
Prg max/avg/min : 101324.98 101324.45 101323.17
U   max/avg/min : 0.29995458 0.0055447066 -0.065780159
 
Iteration Number = 17

DILUPBiCG:  Solving for Ux, Initial residual = 0.064181904, Final residual = 5.2647748e-05, No Iterations 2
DILUPBiCG:  Solving for Uy, Initial residual = 0.091938197, Final residual = 1.4114902e-05, No Iterations 3
DILUPBiCG:  Solving for Uz, Initial residual = 0.081440508, Final residual = 5.0152663e-05, No Iterations 2
DILUPBiCG:  Solving for h, Initial residual = 0.022697455, Final residual = 8.2811199e-06, No Iterations 6
sngrad(rho) : 3.1800881 -19.025084 -58.358501
GAMG:  Solving for p_rgh, Initial residual = 0.094947456, Final residual = 0.0075873665, No Iterations 3
sngrad(rho) : 3.1800881 -19.025084 -58.358501
sngrad(rho) : 3.1800881 -19.025084 -58.358501
time step continuity errors : sum local = 0.45502767, global = 0.058114238, cumulative = 0.33753997
ExecutionTime = 7.21 s  ClockTime = 7 s
Inflow      : 2.382883e-06 [kg/s]
Outflow     : 9.8495299e-06 [kg/s]
EnergyInflow  : 0.71915409 [W]
EnergyOutflow : 3.0114144 [W]
EnergyBalance : 2.2922603 [W]
rho max/avg/min : 1.1860876 1.1565443 1.0650151
T   max/avg/min : 331.33866 305.20699 297.51676
P   max/avg/min : 101324.94 101318.65 101312.4
Prg max/avg/min : 101325 101324.32 101322.82
U   max/avg/min : 0.31617791 0.0071942904 -0.067509826
 
Iteration Number = 18

DILUPBiCG:  Solving for Ux, Initial residual = 0.073631663, Final residual = 6.1796459e-05, No Iterations 2
DILUPBiCG:  Solving for Uy, Initial residual = 0.12291717, Final residual = 4.5701369e-06, No Iterations 3
DILUPBiCG:  Solving for Uz, Initial residual = 0.079156005, Final residual = 4.9023219e-05, No Iterations 2
DILUPBiCG:  Solving for h, Initial residual = 0.021197481, Final residual = 1.2697491e-05, No Iterations 5
sngrad(rho) : 1.6111079 -18.882193 -58.284143
GAMG:  Solving for p_rgh, Initial residual = 0.089882373, Final residual = 0.0080423365, No Iterations 2
sngrad(rho) : 1.6111079 -18.882193 -58.284143
sngrad(rho) : 1.6111079 -18.882193 -58.284143
time step continuity errors : sum local = 0.49859374, global = 0.04014312, cumulative = 0.37768309
ExecutionTime = 7.62 s  ClockTime = 8 s
Inflow      : 4.6234266e-06 [kg/s]
Outflow     : 9.7811042e-06 [kg/s]
EnergyInflow  : 1.3953502 [W]
EnergyOutflow : 2.9996494 [W]
EnergyBalance : 1.6042993 [W]
rho max/avg/min : 1.1858948 1.1554376 1.0578887
T   max/avg/min : 333.56979 305.50545 297.5644
P   max/avg/min : 101324.94 101318.55 101312.18
Prg max/avg/min : 101324.99 101324.22 101322.57
U   max/avg/min : 0.33213944 0.0091728634 -0.067796535
 
Iteration Number = 19

DILUPBiCG:  Solving for Ux, Initial residual = 0.076726064, Final residual = 6.5490198e-05, No Iterations 2
DILUPBiCG:  Solving for Uy, Initial residual = 0.11855576, Final residual = 1.1607365e-05, No Iterations 3
DILUPBiCG:  Solving for Uz, Initial residual = 0.072228187, Final residual = 4.5242225e-05, No Iterations 2
DILUPBiCG:  Solving for h, Initial residual = 0.02027887, Final residual = 5.5879505e-06, No Iterations 5
sngrad(rho) : 3.5799093 -18.637671 -58.199375
GAMG:  Solving for p_rgh, Initial residual = 0.083287295, Final residual = 0.0078527382, No Iterations 2
sngrad(rho) : 3.5799093 -18.637671 -58.199375
sngrad(rho) : 3.5799093 -18.637671 -58.199375
time step continuity errors : sum local = 0.49683198, global = 0.044976448, cumulative = 0.42265954
ExecutionTime = 8.02 s  ClockTime = 8 s
Inflow      : 4.6853367e-06 [kg/s]
Outflow     : 1.0464011e-05 [kg/s]
EnergyInflow  : 1.4140346 [W]
EnergyOutflow : 3.2206407 [W]
EnergyBalance : 1.8066061 [W]
rho max/avg/min : 1.1857932 1.1543228 1.0518604
T   max/avg/min : 335.48092 305.80697 297.58939
P   max/avg/min : 101324.95 101318.46 101312.04
Prg max/avg/min : 101325.01 101324.12 101322.32
U   max/avg/min : 0.36334961 0.011413347 -0.065730245
 
Iteration Number = 20

DILUPBiCG:  Solving for Ux, Initial residual = 0.072561961, Final residual = 3.0081545e-06, No Iterations 3
DILUPBiCG:  Solving for Uy, Initial residual = 0.10094855, Final residual = 5.5012758e-06, No Iterations 3
DILUPBiCG:  Solving for Uz, Initial residual = 0.066177193, Final residual = 4.1576181e-05, No Iterations 2
DILUPBiCG:  Solving for h, Initial residual = 0.019259283, Final residual = 1.801698e-05, No Iterations 5
sngrad(rho) : 1.5908637 -18.489017 -58.103495
GAMG:  Solving for p_rgh, Initial residual = 0.078505588, Final residual = 0.0076308368, No Iterations 3
sngrad(rho) : 1.5908637 -18.489017 -58.103495
sngrad(rho) : 1.5908637 -18.489017 -58.103495
time step continuity errors : sum local = 0.49221833, global = 0.049464835, cumulative = 0.47212438
ExecutionTime = 8.46 s  ClockTime = 9 s
Inflow      : 4.1176196e-06 [kg/s]
Outflow     : 1.0472972e-05 [kg/s]
EnergyInflow  : 1.2426976 [W]
EnergyOutflow : 3.233634 [W]
EnergyBalance : 1.9909364 [W]
rho max/avg/min : 1.1857218 1.153224 1.0469176
T   max/avg/min : 337.06417 306.10495 297.60677
P   max/avg/min : 101324.97 101318.36 101311.77
Prg max/avg/min : 101325.03 101324.01 101322.02
U   max/avg/min : 0.35085388 0.013948557 -0.060096854
 
Iteration Number = 21

DILUPBiCG:  Solving for Ux, Initial residual = 0.068074092, Final residual = 1.0797908e-05, No Iterations 3
DILUPBiCG:  Solving for Uy, Initial residual = 0.1048537, Final residual = 1.3326676e-05, No Iterations 3
DILUPBiCG:  Solving for Uz, Initial residual = 0.062743406, Final residual = 4.0490731e-05, No Iterations 2
DILUPBiCG:  Solving for h, Initial residual = 0.01831782, Final residual = 5.8662415e-06, No Iterations 5
sngrad(rho) : 3.0481563 -18.325537 -57.996823
GAMG:  Solving for p_rgh, Initial residual = 0.077852708, Final residual = 0.0077482789, No Iterations 3
sngrad(rho) : 3.0481563 -18.325537 -57.996823
sngrad(rho) : 3.0481563 -18.325537 -57.996823
time step continuity errors : sum local = 0.51004417, global = 0.050052754, cumulative = 0.52217713
ExecutionTime = 8.88 s  ClockTime = 9 s
Inflow      : 4.7010055e-06 [kg/s]
Outflow     : 1.1131895e-05 [kg/s]
EnergyInflow  : 1.4187635 [W]
EnergyOutflow : 3.4538666 [W]
EnergyBalance : 2.0351031 [W]
rho max/avg/min : 1.1855442 1.1521366 1.0434332
T   max/avg/min : 338.18892 306.40068 297.65072
P   max/avg/min : 101324.98 101318.24 101311.54
Prg max/avg/min : 101325.03 101323.89 101321.73
U   max/avg/min : 0.39503032 0.016823075 -0.053517005
 
Iteration Number = 22

DILUPBiCG:  Solving for Ux, Initial residual = 0.061526497, Final residual = 3.7723031e-06, No Iterations 3
DILUPBiCG:  Solving for Uy, Initial residual = 0.10180409, Final residual = 1.9715625e-05, No Iterations 3
DILUPBiCG:  Solving for Uz, Initial residual = 0.059421407, Final residual = 3.8335219e-05, No Iterations 2
DILUPBiCG:  Solving for h, Initial residual = 0.01753364, Final residual = 9.3730993e-06, No Iterations 5
sngrad(rho) : 2.1827223 -18.2655 -57.886172
GAMG:  Solving for p_rgh, Initial residual = 0.077612566, Final residual = 0.0068783179, No Iterations 4
sngrad(rho) : 2.1827223 -18.2655 -57.886172
sngrad(rho) : 2.1827223 -18.2655 -57.886172
time step continuity errors : sum local = 0.46109624, global = 0.03373982, cumulative = 0.55591695
ExecutionTime = 9.33 s  ClockTime = 9 s
Inflow      : 7.4849714e-06 [kg/s]
Outflow     : 1.1819939e-05 [kg/s]
EnergyInflow  : 2.2589644 [W]
EnergyOutflow : 3.6888524 [W]
EnergyBalance : 1.4298881 [W]
rho max/avg/min : 1.1853747 1.1510594 1.0424895
T   max/avg/min : 338.49418 306.69433 297.69262
P   max/avg/min : 101324.96 101318.09 101311.21
Prg max/avg/min : 101325.02 101323.74 101321.4
U   max/avg/min : 0.43891759 0.020073564 -0.041750885
 
Iteration Number = 23

DILUPBiCG:  Solving for Ux, Initial residual = 0.059464341, Final residual = 5.4507669e-06, No Iterations 3
DILUPBiCG:  Solving for Uy, Initial residual = 0.099353485, Final residual = 6.2278561e-06, No Iterations 3
DILUPBiCG:  Solving for Uz, Initial residual = 0.057389057, Final residual = 3.8211352e-05, No Iterations 2
DILUPBiCG:  Solving for h, Initial residual = 0.016792654, Final residual = 7.675017e-06, No Iterations 5
sngrad(rho) : 0.89402986 -17.79427 -57.762408
GAMG:  Solving for p_rgh, Initial residual = 0.077775247, Final residual = 0.0070821358, No Iterations 4
sngrad(rho) : 0.89402986 -17.79427 -57.762408
sngrad(rho) : 0.89402986 -17.79427 -57.762408
time step continuity errors : sum local = 0.48046114, global = -0.019021562, cumulative = 0.53689539
ExecutionTime = 9.75 s  ClockTime = 10 s
Inflow      : 1.5077773e-05 [kg/s]
Outflow     : 1.263384e-05 [kg/s]
EnergyInflow  : 4.5504719 [W]
EnergyOutflow : 3.9671931 [W]
EnergyBalance : -0.58327872 [W]
rho max/avg/min : 1.1851169 1.1499932 1.0435875
T   max/avg/min : 338.13698 306.98559 297.75661
P   max/avg/min : 101324.87 101317.87 101310.81
Prg max/avg/min : 101324.93 101323.5 101321
U   max/avg/min : 0.44903829 0.023802743 -0.026006247
 
Iteration Number = 24

DILUPBiCG:  Solving for Ux, Initial residual = 0.061538618, Final residual = 2.676157e-06, No Iterations 3
DILUPBiCG:  Solving for Uy, Initial residual = 0.10184018, Final residual = 1.7336843e-05, No Iterations 3
DILUPBiCG:  Solving for Uz, Initial residual = 0.056769572, Final residual = 3.7690019e-05, No Iterations 2
DILUPBiCG:  Solving for h, Initial residual = 0.016182486, Final residual = 1.2628891e-06, No Iterations 6
sngrad(rho) : 0.82750251 -17.348679 -57.637196
GAMG:  Solving for p_rgh, Initial residual = 0.079332626, Final residual = 0.0071717454, No Iterations 3
sngrad(rho) : 0.82750251 -17.348679 -57.637196
sngrad(rho) : 0.82750251 -17.348679 -57.637196
time step continuity errors : sum local = 0.49593426, global = 0.026868501, cumulative = 0.56376389
ExecutionTime = 10.18 s  ClockTime = 10 s
Inflow      : 1.0544279e-05 [kg/s]
Outflow     : 1.3996404e-05 [kg/s]
EnergyInflow  : 3.1822633 [W]
EnergyOutflow : 4.419719 [W]
EnergyBalance : 1.2374557 [W]
rho max/avg/min : 1.1847021 1.148949 1.0496646
T   max/avg/min : 336.17798 307.27132 297.85982
P   max/avg/min : 101324.91 101317.82 101310.61
Prg max/avg/min : 101324.96 101323.45 101320.88
U   max/avg/min : 0.45316186 0.027935043 -0.010923562
 
Iteration Number = 25

DILUPBiCG:  Solving for Ux, Initial residual = 0.062275006, Final residual = 2.8029415e-06, No Iterations 3
DILUPBiCG:  Solving for Uy, Initial residual = 0.099775698, Final residual = 1.7176743e-05, No Iterations 3
DILUPBiCG:  Solving for Uz, Initial residual = 0.051290358, Final residual = 3.4906299e-05, No Iterations 2
DILUPBiCG:  Solving for h, Initial residual = 0.015766443, Final residual = 9.8724101e-06, No Iterations 5
sngrad(rho) : 0.53763775 -15.992404 -57.503412
GAMG:  Solving for p_rgh, Initial residual = 0.081036544, Final residual = 0.0077278429, No Iterations 4
sngrad(rho) : 0.53763775 -15.992404 -57.503412
sngrad(rho) : 0.53763775 -15.992404 -57.503412
time step continuity errors : sum local = 0.54294814, global = -0.039111683, cumulative = 0.52465221
ExecutionTime = 10.63 s  ClockTime = 11 s
Inflow      : 2.0907804e-05 [kg/s]
Outflow     : 1.5882648e-05 [kg/s]
EnergyInflow  : 6.3099754 [W]
EnergyOutflow : 5.0297387 [W]
EnergyBalance : -1.2802367 [W]
rho max/avg/min : 1.1842125 1.1479044 1.0607177
T   max/avg/min : 332.6743 307.55823 297.98255
P   max/avg/min : 101324.84 101317.63 101310.22
Prg max/avg/min : 101324.9 101323.26 101320.62
U   max/avg/min : 0.45328864 0.032398403 -0.004125117
 
Iteration Number = 26

DILUPBiCG:  Solving for Ux, Initial residual = 0.065617252, Final residual = 6.014638e-05, No Iterations 2
DILUPBiCG:  Solving for Uy, Initial residual = 0.10775298, Final residual = 1.1108601e-05, No Iterations 3
DILUPBiCG:  Solving for Uz, Initial residual = 0.04943938, Final residual = 3.4007955e-05, No Iterations 2
DILUPBiCG:  Solving for h, Initial residual = 0.015246076, Final residual = 9.521668e-06, No Iterations 5
sngrad(rho) : 0.49336935 -12.686424 -57.37108
GAMG:  Solving for p_rgh, Initial residual = 0.079573017, Final residual = 0.0075804574, No Iterations 6
sngrad(rho) : 0.49336935 -12.686424 -57.37108
sngrad(rho) : 0.49336935 -12.686424 -57.37108
time step continuity errors : sum local = 0.53807085, global = 0.035796868, cumulative = 0.56044908
ExecutionTime = 11.07 s  ClockTime = 11 s
Inflow      : 1.3914471e-05 [kg/s]
Outflow     : 1.8513732e-05 [kg/s]
EnergyInflow  : 4.1993872 [W]
EnergyOutflow : 5.8577185 [W]
EnergyBalance : 1.6583313 [W]
rho max/avg/min : 1.1836788 1.1468882 1.077123
T   max/avg/min : 327.6063 307.83782 298.11598
P   max/avg/min : 101324.93 101317.49 101309.78
Prg max/avg/min : 101324.98 101323.12 101320.36
U   max/avg/min : 0.46103157 0.037365903 -0.00071639419
 
Iteration Number = 27

DILUPBiCG:  Solving for Ux, Initial residual = 0.074473336, Final residual = 3.6688649e-06, No Iterations 3
DILUPBiCG:  Solving for Uy, Initial residual = 0.10507389, Final residual = 4.852356e-06, No Iterations 3
DILUPBiCG:  Solving for Uz, Initial residual = 0.048256065, Final residual = 3.4179523e-05, No Iterations 2
DILUPBiCG:  Solving for h, Initial residual = 0.014581181, Final residual = 8.0995615e-06, No Iterations 5
sngrad(rho) : 0.46218028 -5.3930948 -57.122359
GAMG:  Solving for p_rgh, Initial residual = 0.078670231, Final residual = 0.0077042953, No Iterations 7
sngrad(rho) : 0.46218028 -5.3930948 -57.122359
sngrad(rho) : 0.46218028 -5.3930948 -57.122359
time step continuity errors : sum local = 0.55389765, global = 0.045276044, cumulative = 0.60572512
ExecutionTime = 11.54 s  ClockTime = 12 s
Inflow      : 1.5887868e-05 [kg/s]
Outflow     : 2.1705036e-05 [kg/s]
EnergyInflow  : 4.7949587 [W]
EnergyOutflow : 6.844909 [W]
EnergyBalance : 2.0499503 [W]
rho max/avg/min : 1.1831454 1.1458871 1.0888062
T   max/avg/min : 324.0897 308.11422 298.24922
P   max/avg/min : 101324.97 101317.24 101309.19
Prg max/avg/min : 101325.03 101322.86 101319.92
U   max/avg/min : 0.47235644 0.043013006 0.00017601282
 
Iteration Number = 28

DILUPBiCG:  Solving for Ux, Initial residual = 0.087363552, Final residual = 3.3787623e-06, No Iterations 3
DILUPBiCG:  Solving for Uy, Initial residual = 0.10894846, Final residual = 9.1000261e-05, No Iterations 2
DILUPBiCG:  Solving for Uz, Initial residual = 0.048642774, Final residual = 3.5773465e-05, No Iterations 2
DILUPBiCG:  Solving for h, Initial residual = 0.014061513, Final residual = 3.6357677e-06, No Iterations 5
sngrad(rho) : 0.46371934 -0.15255575 -3.4883505
GAMG:  Solving for p_rgh, Initial residual = 0.076174421, Final residual = 0.0073583564, No Iterations 11
sngrad(rho) : 0.46371934 -0.15255575 -3.4883505
sngrad(rho) : 0.46371934 -0.15255575 -3.4883505
time step continuity errors : sum local = 0.53486873, global = 0.051868469, cumulative = 0.65759359
ExecutionTime = 12.03 s  ClockTime = 12 s
Inflow      : 1.8298444e-05 [kg/s]
Outflow     : 2.496262e-05 [kg/s]
EnergyInflow  : 5.5224704 [W]
EnergyOutflow : 7.8470635 [W]
EnergyBalance : 2.3245932 [W]
rho max/avg/min : 1.1826285 1.1448964 1.0931449
T   max/avg/min : 322.80147 308.38823 298.37785
P   max/avg/min : 101324.97 101316.7 101308.2
Prg max/avg/min : 101325.03 101322.32 101318.9
U   max/avg/min : 0.48016025 0.04975818 0.00020781281
 
Iteration Number = 29

DILUPBiCG:  Solving for Ux, Initial residual = 0.096409901, Final residual = 8.0911656e-05, No Iterations 2
DILUPBiCG:  Solving for Uy, Initial residual = 0.1291065, Final residual = 3.479574e-05, No Iterations 3
DILUPBiCG:  Solving for Uz, Initial residual = 0.052367326, Final residual = 4.0211497e-05, No Iterations 2
DILUPBiCG:  Solving for h, Initial residual = 0.01354876, Final residual = 5.8120565e-06, No Iterations 5
sngrad(rho) : 0.44501894 -0.11693743 -2.3991607
GAMG:  Solving for p_rgh, Initial residual = 0.073987241, Final residual = 0.0073621918, No Iterations 55
sngrad(rho) : 0.44501894 -0.11693743 -2.3991607
sngrad(rho) : 0.44501894 -0.11693743 -2.3991607
time step continuity errors : sum local = 0.54029741, global = -0.014101409, cumulative = 0.64349218
ExecutionTime = 12.92 s  ClockTime = 13 s
Inflow      : 2.9610651e-05 [kg/s]
Outflow     : 2.7798871e-05 [kg/s]
EnergyInflow  : 8.9364947 [W]
EnergyOutflow : 8.7172541 [W]
EnergyBalance : -0.21924061 [W]
rho max/avg/min : 1.1820844 1.1439145 1.0917332
T   max/avg/min : 323.21552 308.65967 298.5119
P   max/avg/min : 101324.83 101310.17 101295.35
Prg max/avg/min : 101324.89 101315.78 101306.06
U   max/avg/min : 0.48145363 0.065183869 0.00034613756
 
Iteration Number = 30

DILUPBiCG:  Solving for Ux, Initial residual = 0.10777988, Final residual = 2.3898395e-05, No Iterations 3
DILUPBiCG:  Solving for Uy, Initial residual = 0.1459212, Final residual = 2.9462983e-05, No Iterations 3
DILUPBiCG:  Solving for Uz, Initial residual = 0.13246746, Final residual = 0.00012114782, No Iterations 2
DILUPBiCG:  Solving for h, Initial residual = 0.01318756, Final residual = 7.3577253e-06, No Iterations 6
sngrad(rho) : 0.42704641 -0.062630389 -1.5272957
GAMG:  Solving for p_rgh, Initial residual = 0.070646711, Final residual = 0.0067987432, No Iterations 7
sngrad(rho) : 0.42704641 -0.062630389 -1.5272957
sngrad(rho) : 0.42704641 -0.062630389 -1.5272957
time step continuity errors : sum local = 0.50955697, global = 0.036991723, cumulative = 0.6804839
ExecutionTime = 13.39 s  ClockTime = 14 s
Inflow      : 2.4779663e-05 [kg/s]
Outflow     : 2.9532442e-05 [kg/s]
EnergyInflow  : 7.4785022 [W]
EnergyOutflow : 9.2466488 [W]
EnergyBalance : 1.7681466 [W]
rho max/avg/min : 1.1814258 1.1428888 1.0905756
T   max/avg/min : 323.51794 308.92538 298.64038
P   max/avg/min : 101324.85 101309.96 101294.93
Prg max/avg/min : 101324.91 101315.56 101305.62
U   max/avg/min : 0.4981949 0.091254313 0.00048349017
 
Iteration Number = 31

DILUPBiCG:  Solving for Ux, Initial residual = 0.10284557, Final residual = 5.2868517e-06, No Iterations 3
DILUPBiCG:  Solving for Uy, Initial residual = 0.13060107, Final residual = 3.397271e-05, No Iterations 3
DILUPBiCG:  Solving for Uz, Initial residual = 0.098036452, Final residual = 9.1089641e-05, No Iterations 2
DILUPBiCG:  Solving for h, Initial residual = 0.012771084, Final residual = 3.8278739e-06, No Iterations 6
sngrad(rho) : 0.41036428 -0.063232006 -1.5538132
GAMG:  Solving for p_rgh, Initial residual = 0.069115957, Final residual = 0.0068337681, No Iterations 6
sngrad(rho) : 0.41036428 -0.063232006 -1.5538132
sngrad(rho) : 0.41036428 -0.063232006 -1.5538132
time step continuity errors : sum local = 0.52018433, global = -0.013082302, cumulative = 0.6674016
ExecutionTime = 13.85 s  ClockTime = 14 s
Inflow      : 3.3088414e-05 [kg/s]
Outflow     : 3.1407571e-05 [kg/s]
EnergyInflow  : 9.9860834 [W]
EnergyOutflow : 9.8253642 [W]
EnergyBalance : -0.16071922 [W]
rho max/avg/min : 1.180915 1.1419395 1.0899605
T   max/avg/min : 323.69917 309.19031 298.7683
P   max/avg/min : 101324.81 101309.68 101294.46
Prg max/avg/min : 101324.87 101315.28 101305.14
U   max/avg/min : 0.59376891 0.11757398 0.00049843903
 
Iteration Number = 32

DILUPBiCG:  Solving for Ux, Initial residual = 0.10010645, Final residual = 5.876236e-06, No Iterations 3
DILUPBiCG:  Solving for Uy, Initial residual = 0.13177181, Final residual = 3.2554727e-05, No Iterations 3
DILUPBiCG:  Solving for Uz, Initial residual = 0.077954069, Final residual = 7.7769696e-05, No Iterations 2
DILUPBiCG:  Solving for h, Initial residual = 0.012419107, Final residual = 3.9013946e-06, No Iterations 6
sngrad(rho) : 0.42036249 -0.036456487 -1.2083669
GAMG:  Solving for p_rgh, Initial residual = 0.067476685, Final residual = 0.0066850266, No Iterations 6
sngrad(rho) : 0.42036249 -0.036456487 -1.2083669
sngrad(rho) : 0.42036249 -0.036456487 -1.2083669
time step continuity errors : sum local = 0.50565215, global = 0.0067505977, cumulative = 0.6741522
ExecutionTime = 14.31 s  ClockTime = 14 s
Inflow      : 3.2454668e-05 [kg/s]
Outflow     : 3.3321999e-05 [kg/s]
EnergyInflow  : 9.7948186 [W]
EnergyOutflow : 10.417653 [W]
EnergyBalance : 0.62283413 [W]
rho max/avg/min : 1.180391 1.1410099 1.0896702
T   max/avg/min : 323.78383 309.45032 298.89949
P   max/avg/min : 101324.86 101309.68 101294.47
Prg max/avg/min : 101324.92 101315.28 101305.13
U   max/avg/min : 0.68245635 0.14369269 0.0005127521
 
Iteration Number = 33

DILUPBiCG:  Solving for Ux, Initial residual = 0.10521662, Final residual = 5.8136741e-06, No Iterations 3
DILUPBiCG:  Solving for Uy, Initial residual = 0.13712321, Final residual = 1.1875665e-05, No Iterations 3
DILUPBiCG:  Solving for Uz, Initial residual = 0.063531996, Final residual = 1.9731588e-06, No Iterations 3
DILUPBiCG:  Solving for h, Initial residual = 0.012070352, Final residual = 3.0490296e-06, No Iterations 7
sngrad(rho) : 0.40567196 -0.012991923 -1.1143858
GAMG:  Solving for p_rgh, Initial residual = 0.06764114, Final residual = 0.006547308, No Iterations 7
sngrad(rho) : 0.40567196 -0.012991923 -1.1143858
sngrad(rho) : 0.40567196 -0.012991923 -1.1143858
time step continuity errors : sum local = 0.49235885, global = -0.015763662, cumulative = 0.65838854
ExecutionTime = 14.8 s  ClockTime = 15 s
Inflow      : 3.7222705e-05 [kg/s]
Outflow     : 3.5197354e-05 [kg/s]
EnergyInflow  : 11.233812 [W]
EnergyOutflow : 10.999752 [W]
EnergyBalance : -0.23406031 [W]
rho max/avg/min : 1.1799221 1.1400971 1.0887016
T   max/avg/min : 324.12344 309.7072 299.0182
P   max/avg/min : 101324.87 101309.82 101294.78
Prg max/avg/min : 101324.93 101315.41 101305.42
U   max/avg/min : 0.76542502 0.16912061 0.00052517487
 
Iteration Number = 34

DILUPBiCG:  Solving for Ux, Initial residual = 0.10834622, Final residual = 1.4865908e-05, No Iterations 3
DILUPBiCG:  Solving for Uy, Initial residual = 0.13227262, Final residual = 9.3249606e-06, No Iterations 3
DILUPBiCG:  Solving for Uz, Initial residual = 0.052805966, Final residual = 1.7728089e-06, No Iterations 3
DILUPBiCG:  Solving for h, Initial residual = 0.011768929, Final residual = 1.8185496e-06, No Iterations 7
sngrad(rho) : 0.39439542 0.013591796 -0.91971374
GAMG:  Solving for p_rgh, Initial residual = 0.069684731, Final residual = 0.0069445042, No Iterations 7
sngrad(rho) : 0.39439542 0.013591796 -0.91971374
sngrad(rho) : 0.39439542 0.013591796 -0.91971374
time step continuity errors : sum local = 0.51879959, global = -0.042152996, cumulative = 0.61623554
ExecutionTime = 15.27 s  ClockTime = 15 s
Inflow      : 4.249651e-05 [kg/s]
Outflow     : 3.7080599e-05 [kg/s]
EnergyInflow  : 12.825447 [W]
EnergyOutflow : 11.586444 [W]
EnergyBalance : -1.239003 [W]
rho max/avg/min : 1.1794344 1.1391998 1.0869243
T   max/avg/min : 324.64954 309.96083 299.14266
P   max/avg/min : 101324.84 101310.13 101295.43
Prg max/avg/min : 101324.9 101315.71 101306.06
U   max/avg/min : 0.83033251 0.19345143 0.00053487593
 
Iteration Number = 35

DILUPBiCG:  Solving for Ux, Initial residual = 0.11030758, Final residual = 7.8709052e-06, No Iterations 3
DILUPBiCG:  Solving for Uy, Initial residual = 0.13662509, Final residual = 1.2397357e-05, No Iterations 3
DILUPBiCG:  Solving for Uz, Initial residual = 0.044191344, Final residual = 1.5929775e-06, No Iterations 3
DILUPBiCG:  Solving for h, Initial residual = 0.011476869, Final residual = 8.7226612e-06, No Iterations 7
sngrad(rho) : 0.46697747 0.037195665 -0.76862592
GAMG:  Solving for p_rgh, Initial residual = 0.070992832, Final residual = 0.0068647717, No Iterations 11
sngrad(rho) : 0.46697747 0.037195665 -0.76862592
sngrad(rho) : 0.46697747 0.037195665 -0.76862592
time step continuity errors : sum local = 0.5099669, global = 0.013664181, cumulative = 0.62989972
ExecutionTime = 15.79 s  ClockTime = 16 s
Inflow      : 3.7109032e-05 [kg/s]
Outflow     : 3.8864636e-05 [kg/s]
EnergyInflow  : 11.199506 [W]
EnergyOutflow : 12.144932 [W]
EnergyBalance : 0.94542617 [W]
rho max/avg/min : 1.1790164 1.1383198 1.0852084
T   max/avg/min : 325.13699 310.21085 299.25056
P   max/avg/min : 101324.92 101311.04 101297.15
Prg max/avg/min : 101324.97 101316.62 101307.78
U   max/avg/min : 0.87334451 0.21582508 0.00053704824
 
Iteration Number = 36

DILUPBiCG:  Solving for Ux, Initial residual = 0.10991076, Final residual = 8.5833141e-06, No Iterations 3
DILUPBiCG:  Solving for Uy, Initial residual = 0.13678635, Final residual = 9.6366252e-06, No Iterations 3
DILUPBiCG:  Solving for Uz, Initial residual = 0.035443596, Final residual = 1.3735883e-06, No Iterations 3
DILUPBiCG:  Solving for h, Initial residual = 0.011125577, Final residual = 3.9889425e-06, No Iterations 7
sngrad(rho) : 0.47889208 0.061463097 -0.64006282
GAMG:  Solving for p_rgh, Initial residual = 0.071708308, Final residual = 0.0068332503, No Iterations 11
sngrad(rho) : 0.47889208 0.061463097 -0.64006282
sngrad(rho) : 0.47889208 0.061463097 -0.64006282
time step continuity errors : sum local = 0.50833003, global = -0.039480353, cumulative = 0.59041937
ExecutionTime = 16.3 s  ClockTime = 16 s
Inflow      : 4.5297211e-05 [kg/s]
Outflow     : 4.0224687e-05 [kg/s]
EnergyInflow  : 13.670698 [W]
EnergyOutflow : 12.573818 [W]
EnergyBalance : -1.0968804 [W]
rho max/avg/min : 1.1786022 1.1374592 1.0835321
T   max/avg/min : 325.6269 310.45788 299.36069
P   max/avg/min : 101324.87 101311.48 101298.1
Prg max/avg/min : 101324.93 101317.06 101308.72
U   max/avg/min : 0.91680483 0.23590419 0.00053136105
 
Iteration Number = 37

DILUPBiCG:  Solving for Ux, Initial residual = 0.10539196, Final residual = 7.6189001e-06, No Iterations 3
DILUPBiCG:  Solving for Uy, Initial residual = 0.1315926, Final residual = 1.4123869e-05, No Iterations 3
DILUPBiCG:  Solving for Uz, Initial residual = 0.030233488, Final residual = 1.255298e-06, No Iterations 3
DILUPBiCG:  Solving for h, Initial residual = 0.010841907, Final residual = 7.7493031e-06, No Iterations 6
sngrad(rho) : 0.40084143 0.078547546 -0.61106512
GAMG:  Solving for p_rgh, Initial residual = 0.069020073, Final residual = 0.0068677617, No Iterations 27
sngrad(rho) : 0.40084143 0.078547546 -0.61106512
sngrad(rho) : 0.40084143 0.078547546 -0.61106512
time step continuity errors : sum local = 0.51123329, global = -0.038870181, cumulative = 0.55154919
ExecutionTime = 16.96 s  ClockTime = 17 s
Inflow      : 4.6321794e-05 [kg/s]
Outflow     : 4.1327666e-05 [kg/s]
EnergyInflow  : 13.979917 [W]
EnergyOutflow : 12.924281 [W]
EnergyBalance : -1.0556363 [W]
rho max/avg/min : 1.1782471 1.1366077 1.0818168
T   max/avg/min : 326.1557 310.70153 299.45368
P   max/avg/min : 101324.84 101312.85 101300.92
Prg max/avg/min : 101324.89 101318.42 101311.4
U   max/avg/min : 0.95725195 0.25328957 0.00051615779
 
Iteration Number = 38

DILUPBiCG:  Solving for Ux, Initial residual = 0.11235541, Final residual = 7.0476726e-06, No Iterations 3
DILUPBiCG:  Solving for Uy, Initial residual = 0.13959341, Final residual = 3.1183955e-05, No Iterations 3
DILUPBiCG:  Solving for Uz, Initial residual = 0.022919055, Final residual = 1.0099514e-06, No Iterations 3
DILUPBiCG:  Solving for h, Initial residual = 0.010544752, Final residual = 7.0420431e-06, No Iterations 6
sngrad(rho) : 0.37573975 0.093208147 -0.58647509
GAMG:  Solving for p_rgh, Initial residual = 0.067817265, Final residual = 0.0067801964, No Iterations 77
sngrad(rho) : 0.37573975 0.093208147 -0.58647509
sngrad(rho) : 0.37573975 0.093208147 -0.58647509
time step continuity errors : sum local = 0.50067546, global = -0.032609828, cumulative = 0.51893936
ExecutionTime = 18.07 s  ClockTime = 18 s
Inflow      : 4.6138645e-05 [kg/s]
Outflow     : 4.1948861e-05 [kg/s]
EnergyInflow  : 13.924643 [W]
EnergyOutflow : 13.125837 [W]
EnergyBalance : -0.79880591 [W]
rho max/avg/min : 1.1779338 1.1357778 1.0800918
T   max/avg/min : 326.68385 310.94257 299.54155
P   max/avg/min : 101324.84 101317.13 101309.54
Prg max/avg/min : 101325.24 101322.7 101319.5
U   max/avg/min : 0.98977687 0.26333545 0.00047873909
 
Iteration Number = 39

DILUPBiCG:  Solving for Ux, Initial residual = 0.11734871, Final residual = 9.8106678e-06, No Iterations 3
DILUPBiCG:  Solving for Uy, Initial residual = 0.13281238, Final residual = 5.9963937e-05, No Iterations 3
DILUPBiCG:  Solving for Uz, Initial residual = 0.010008247, Final residual = 2.4718542e-06, No Iterations 3
DILUPBiCG:  Solving for h, Initial residual = 0.010226193, Final residual = 7.2561629e-06, No Iterations 7
sngrad(rho) : 0.38587278 0.10439996 -0.5522322
GAMG:  Solving for p_rgh, Initial residual = 0.069148393, Final residual = 0.0069090741, No Iterations 76
sngrad(rho) : 0.38587278 0.10439996 -0.5522322
sngrad(rho) : 0.38587278 0.10439996 -0.5522322
time step continuity errors : sum local = 0.50255289, global = -0.033313097, cumulative = 0.48562626
ExecutionTime = 19.18 s  ClockTime = 19 s
Inflow      : 4.604292e-05 [kg/s]
Outflow     : 4.1762779e-05 [kg/s]
EnergyInflow  : 13.895753 [W]
EnergyOutflow : 13.076835 [W]
EnergyBalance : -0.8189182 [W]
rho max/avg/min : 1.1777341 1.1349849 1.0784109
T   max/avg/min : 327.21611 311.18284 299.61768
P   max/avg/min : 101324.84 101321.24 101317.4
Prg max/avg/min : 101329.15 101326.8 101324.89
U   max/avg/min : 0.99606864 0.26187132 0.0004150022
 
Iteration Number = 40

DILUPBiCG:  Solving for Ux, Initial residual = 0.1213485, Final residual = 1.4138061e-05, No Iterations 3
DILUPBiCG:  Solving for Uy, Initial residual = 0.13814034, Final residual = 1.2379428e-05, No Iterations 3
DILUPBiCG:  Solving for Uz, Initial residual = 0.012675677, Final residual = 1.0610097e-06, No Iterations 3
DILUPBiCG:  Solving for h, Initial residual = 0.0099584943, Final residual = 8.4690564e-06, No Iterations 7
sngrad(rho) : 0.39100853 0.1122539 -0.51635679
GAMG:  Solving for p_rgh, Initial residual = 0.070955943, Final residual = 0.0070672613, No Iterations 40
sngrad(rho) : 0.39100853 0.1122539 -0.51635679
sngrad(rho) : 0.39100853 0.1122539 -0.51635679
time step continuity errors : sum local = 0.51658084, global = -0.037565157, cumulative = 0.44806111
ExecutionTime = 19.96 s  ClockTime = 20 s
Inflow      : 4.5620212e-05 [kg/s]
Outflow     : 4.0793757e-05 [kg/s]
EnergyInflow  : 13.76818 [W]
EnergyOutflow : 12.784588 [W]
EnergyBalance : -0.98359201 [W]
rho max/avg/min : 1.1775727 1.1341933 1.0767664
T   max/avg/min : 327.73864 311.42265 299.68282
P   max/avg/min : 101324.94 101323.09 101320.86
Prg max/avg/min : 101332.79 101328.65 101324.9
U   max/avg/min : 0.97023084 0.25193856 0.00033937149
 
Iteration Number = 41

DILUPBiCG:  Solving for Ux, Initial residual = 0.12479605, Final residual = 8.4058685e-06, No Iterations 3
DILUPBiCG:  Solving for Uy, Initial residual = 0.14062188, Final residual = 9.266389e-06, No Iterations 3
DILUPBiCG:  Solving for Uz, Initial residual = 0.018926825, Final residual = 8.1302752e-07, No Iterations 3
DILUPBiCG:  Solving for h, Initial residual = 0.0097084953, Final residual = 7.0598536e-06, No Iterations 6
sngrad(rho) : 0.46886465 0.11606436 -0.47759607
GAMG:  Solving for p_rgh, Initial residual = 0.07008491, Final residual = 0.0070027698, No Iterations 24
sngrad(rho) : 0.46886465 0.11606436 -0.47759607
sngrad(rho) : 0.46886465 0.11606436 -0.47759607
time step continuity errors : sum local = 0.52417333, global = -0.040918888, cumulative = 0.40714222
ExecutionTime = 20.58 s  ClockTime = 21 s
Inflow      : 4.4519946e-05 [kg/s]
Outflow     : 3.9262596e-05 [kg/s]
EnergyInflow  : 13.43612 [W]
EnergyOutflow : 12.317772 [W]
EnergyBalance : -1.1183474 [W]
rho max/avg/min : 1.1773961 1.1333781 1.0750943
T   max/avg/min : 328.25897 311.66245 299.73855
P   max/avg/min : 101325.06 101324.02 101322.62
Prg max/avg/min : 101334.64 101329.57 101324.9
U   max/avg/min : 0.95070495 0.23823941 0.00027205543
 
Iteration Number = 42

DILUPBiCG:  Solving for Ux, Initial residual = 0.11977084, Final residual = 8.8378147e-06, No Iterations 3
DILUPBiCG:  Solving for Uy, Initial residual = 0.13124301, Final residual = 9.914655e-06, No Iterations 3
DILUPBiCG:  Solving for Uz, Initial residual = 0.023441298, Final residual = 9.6140991e-07, No Iterations 3
DILUPBiCG:  Solving for h, Initial residual = 0.0094749711, Final residual = 6.8665407e-06, No Iterations 6
sngrad(rho) : 0.37131638 0.11576461 -0.43609719
GAMG:  Solving for p_rgh, Initial residual = 0.069949998, Final residual = 0.0069416668, No Iterations 28
sngrad(rho) : 0.37131638 0.11576461 -0.43609719
sngrad(rho) : 0.37131638 0.11576461 -0.43609719
time step continuity errors : sum local = 0.53437773, global = -0.038572789, cumulative = 0.36856943
ExecutionTime = 21.26 s  ClockTime = 21 s
Inflow      : 4.2561719e-05 [kg/s]
Outflow     : 3.7605801e-05 [kg/s]
EnergyInflow  : 12.845127 [W]
EnergyOutflow : 11.81175 [W]
EnergyBalance : -1.0333769 [W]
rho max/avg/min : 1.1772453 1.1325512 1.0734092
T   max/avg/min : 328.7799 311.90311 299.78241
P   max/avg/min : 101325.28 101324.88 101324.32
Prg max/avg/min : 101336.36 101330.43 101324.9
U   max/avg/min : 0.91929475 0.22230534 0.00023174181
 
Iteration Number = 43

DILUPBiCG:  Solving for Ux, Initial residual = 0.12020455, Final residual = 8.4078051e-06, No Iterations 3
DILUPBiCG:  Solving for Uy, Initial residual = 0.14192131, Final residual = 1.480561e-05, No Iterations 3
DILUPBiCG:  Solving for Uz, Initial residual = 0.028641183, Final residual = 1.1456623e-06, No Iterations 3
DILUPBiCG:  Solving for h, Initial residual = 0.0092735514, Final residual = 2.5740098e-06, No Iterations 6
sngrad(rho) : 0.37295193 0.11327795 -0.39273972
GAMG:  Solving for p_rgh, Initial residual = 0.07094553, Final residual = 0.006891021, No Iterations 19
sngrad(rho) : 0.37295193 0.11327795 -0.39273972
sngrad(rho) : 0.37295193 0.11327795 -0.39273972
time step continuity errors : sum local = 0.54202876, global = 0.010323708, cumulative = 0.37889314
ExecutionTime = 21.83 s  ClockTime = 22 s
Inflow      : 3.494156e-05 [kg/s]
Outflow     : 3.6267973e-05 [kg/s]
EnergyInflow  : 10.545363 [W]
EnergyOutflow : 11.404466 [W]
EnergyBalance : 0.85910289 [W]
rho max/avg/min : 1.1771509 1.1317205 1.0717014
T   max/avg/min : 329.3094 312.14505 299.81156
P   max/avg/min : 101328.08 101326.39 101324.65
Prg max/avg/min : 101339.26 101331.93 101324.97
U   max/avg/min : 0.87075226 0.20358166 0.00023793749
 
Iteration Number = 44

DILUPBiCG:  Solving for Ux, Initial residual = 0.12215922, Final residual = 6.6204032e-06, No Iterations 3
DILUPBiCG:  Solving for Uy, Initial residual = 0.14866366, Final residual = 1.0506484e-05, No Iterations 3
DILUPBiCG:  Solving for Uz, Initial residual = 0.03821397, Final residual = 1.4670288e-06, No Iterations 3
DILUPBiCG:  Solving for h, Initial residual = 0.0091202957, Final residual = 4.3528687e-06, No Iterations 6
sngrad(rho) : 0.37272359 0.1092722 -0.35393358
GAMG:  Solving for p_rgh, Initial residual = 0.070552682, Final residual = 0.0062224646, No Iterations 10
sngrad(rho) : 0.37272359 0.1092722 -0.35393358
sngrad(rho) : 0.37272359 0.1092722 -0.35393358
time step continuity errors : sum local = 0.50031745, global = 0.018843465, cumulative = 0.3977366
ExecutionTime = 22.34 s  ClockTime = 23 s
Inflow      : 3.3399354e-05 [kg/s]
Outflow     : 3.5820405e-05 [kg/s]
EnergyInflow  : 10.079925 [W]
EnergyOutflow : 11.274209 [W]
EnergyBalance : 1.1942841 [W]
rho max/avg/min : 1.177069 1.1308932 1.0700158
T   max/avg/min : 329.83756 312.38847 299.84101
P   max/avg/min : 101328.83 101326.52 101324.3
Prg max/avg/min : 101339.68 101332.06 101324.98
U   max/avg/min : 0.80415036 0.18252215 0.00029643146
 
Iteration Number = 45

DILUPBiCG:  Solving for Ux, Initial residual = 0.12836581, Final residual = 6.8117818e-06, No Iterations 3
DILUPBiCG:  Solving for Uy, Initial residual = 0.14582083, Final residual = 8.5559493e-06, No Iterations 3
DILUPBiCG:  Solving for Uz, Initial residual = 0.043593743, Final residual = 1.5699174e-06, No Iterations 3
DILUPBiCG:  Solving for h, Initial residual = 0.0089408824, Final residual = 4.4881509e-06, No Iterations 6
sngrad(rho) : 0.37211247 0.10745867 -0.32074487
GAMG:  Solving for p_rgh, Initial residual = 0.073566083, Final residual = 0.0071184201, No Iterations 9
sngrad(rho) : 0.37211247 0.10745867 -0.32074487
sngrad(rho) : 0.37211247 0.10745867 -0.32074487
time step continuity errors : sum local = 0.58136726, global = 0.021445153, cumulative = 0.41918175
ExecutionTime = 22.82 s  ClockTime = 23 s
Inflow      : 3.368591e-05 [kg/s]
Outflow     : 3.6441232e-05 [kg/s]
EnergyInflow  : 10.166408 [W]
EnergyOutflow : 11.476963 [W]
EnergyBalance : 1.3105553 [W]
rho max/avg/min : 1.1769536 1.1300543 1.0683227
T   max/avg/min : 330.3629 312.63134 299.87166
P   max/avg/min : 101328.57 101326.33 101324.16
Prg max/avg/min : 101339.34 101331.86 101324.91
U   max/avg/min : 0.72767086 0.16151316 0.00023804851
 
Iteration Number = 46

DILUPBiCG:  Solving for Ux, Initial residual = 0.13744299, Final residual = 6.5471362e-06, No Iterations 3
DILUPBiCG:  Solving for Uy, Initial residual = 0.15822417, Final residual = 9.0715599e-06, No Iterations 3
DILUPBiCG:  Solving for Uz, Initial residual = 0.047949568, Final residual = 1.5721002e-06, No Iterations 3
DILUPBiCG:  Solving for h, Initial residual = 0.0088425983, Final residual = 2.9970744e-06, No Iterations 6
sngrad(rho) : 0.50317722 0.11347254 -0.29274541
GAMG:  Solving for p_rgh, Initial residual = 0.077108339, Final residual = 0.0072716972, No Iterations 11
sngrad(rho) : 0.50317722 0.11347254 -0.29274541
sngrad(rho) : 0.50317722 0.11347254 -0.29274541
time step continuity errors : sum local = 0.60451151, global = -0.014624574, cumulative = 0.40455718
ExecutionTime = 23.34 s  ClockTime = 24 s
Inflow      : 3.9223065e-05 [kg/s]
Outflow     : 3.7344067e-05 [kg/s]
EnergyInflow  : 11.837521 [W]
EnergyOutflow : 11.767294 [W]
EnergyBalance : -0.070227664 [W]
rho max/avg/min : 1.1768253 1.1292001 1.0666584
T   max/avg/min : 330.87774 312.87792 299.90334
P   max/avg/min : 101327.13 101325.41 101323.79
Prg max/avg/min : 101337.76 101330.95 101324.71
U   max/avg/min : 0.64532129 0.14184832 -0.00017999213
 
Iteration Number = 47

DILUPBiCG:  Solving for Ux, Initial residual = 0.14691101, Final residual = 7.1709763e-06, No Iterations 3
DILUPBiCG:  Solving for Uy, Initial residual = 0.16982283, Final residual = 1.0560496e-05, No Iterations 3
DILUPBiCG:  Solving for Uz, Initial residual = 0.049644184, Final residual = 1.5264066e-06, No Iterations 3
DILUPBiCG:  Solving for h, Initial residual = 0.0087022782, Final residual = 4.6099134e-06, No Iterations 6
sngrad(rho) : 0.54450728 0.11752522 -0.27454189
GAMG:  Solving for p_rgh, Initial residual = 0.079477578, Final residual = 0.0078207499, No Iterations 13
sngrad(rho) : 0.54450728 0.11752522 -0.27454189
sngrad(rho) : 0.54450728 0.11752522 -0.27454189
time step continuity errors : sum local = 0.6606044, global = 0.048102831, cumulative = 0.45266001
ExecutionTime = 23.86 s  ClockTime = 24 s
Inflow      : 3.2311945e-05 [kg/s]
Outflow     : 3.8492304e-05 [kg/s]
EnergyInflow  : 9.7517451 [W]
EnergyOutflow : 12.134711 [W]
EnergyBalance : 2.3829663 [W]
rho max/avg/min : 1.1766797 1.1283417 1.0649844
T   max/avg/min : 331.39263 313.12394 299.93554
P   max/avg/min : 101326.02 101324.79 101323.61
Prg max/avg/min : 101336.54 101330.32 101324.69
U   max/avg/min : 0.6518869 0.12435918 -0.0029264898
 
Iteration Number = 48

DILUPBiCG:  Solving for Ux, Initial residual = 0.14013037, Final residual = 6.8362694e-06, No Iterations 3
DILUPBiCG:  Solving for Uy, Initial residual = 0.15447978, Final residual = 0.000151551, No Iterations 2
DILUPBiCG:  Solving for Uz, Initial residual = 0.051189251, Final residual = 5.0737125e-05, No Iterations 2
DILUPBiCG:  Solving for h, Initial residual = 0.0086003337, Final residual = 5.1625446e-06, No Iterations 6
sngrad(rho) : 0.44273997 0.1230379 -0.26146808
GAMG:  Solving for p_rgh, Initial residual = 0.083633211, Final residual = 0.0082717867, No Iterations 23
sngrad(rho) : 0.44273997 0.1230379 -0.26146808
sngrad(rho) : 0.44273997 0.1230379 -0.26146808
time step continuity errors : sum local = 0.71361791, global = 0.057617514, cumulative = 0.51027752
ExecutionTime = 24.48 s  ClockTime = 25 s
Inflow      : 3.2134938e-05 [kg/s]
Outflow     : 3.9537765e-05 [kg/s]
EnergyInflow  : 9.6983242 [W]
EnergyOutflow : 12.469847 [W]
EnergyBalance : 2.771523 [W]
rho max/avg/min : 1.1765532 1.1274845 1.0632746
T   max/avg/min : 331.92456 313.37103 299.96388
P   max/avg/min : 101324.9 101323.37 101321.87
Prg max/avg/min : 101333.76 101328.89 101324.58
U   max/avg/min : 0.65956095 0.1096962 -0.0052488144
 
Iteration Number = 49

DILUPBiCG:  Solving for Ux, Initial residual = 0.14547762, Final residual = 9.4775324e-06, No Iterations 3
DILUPBiCG:  Solving for Uy, Initial residual = 0.1750305, Final residual = 9.054837e-06, No Iterations 3
DILUPBiCG:  Solving for Uz, Initial residual = 0.045567812, Final residual = 4.3229619e-05, No Iterations 2
DILUPBiCG:  Solving for h, Initial residual = 0.0084804152, Final residual = 4.9962087e-06, No Iterations 6
sngrad(rho) : 0.52706316 0.12947458 -0.30065987
GAMG:  Solving for p_rgh, Initial residual = 0.088484356, Final residual = 0.0088261862, No Iterations 45
sngrad(rho) : 0.52706316 0.12947458 -0.30065987
sngrad(rho) : 0.52706316 0.12947458 -0.30065987
time step continuity errors : sum local = 0.76476474, global = 0.05515028, cumulative = 0.5654278
ExecutionTime = 25.3 s  ClockTime = 25 s
Inflow      : 3.2993049e-05 [kg/s]
Outflow     : 4.007888e-05 [kg/s]
EnergyInflow  : 9.9573021 [W]
EnergyOutflow : 12.646978 [W]
EnergyBalance : 2.6896755 [W]
rho max/avg/min : 1.1764052 1.126624 1.0615557
T   max/avg/min : 332.45396 313.61707 299.99292
P   max/avg/min : 101324.93 101320.25 101315.7
Prg max/avg/min : 101328.11 101325.77 101324.1
U   max/avg/min : 0.65174568 0.10116459 -0.0076228691
 
Iteration Number = 50

DILUPBiCG:  Solving for Ux, Initial residual = 0.15433075, Final residual = 6.347704e-06, No Iterations 3
DILUPBiCG:  Solving for Uy, Initial residual = 0.17361281, Final residual = 8.0825674e-06, No Iterations 3
DILUPBiCG:  Solving for Uz, Initial residual = 0.028773427, Final residual = 2.8678978e-05, No Iterations 2
DILUPBiCG:  Solving for h, Initial residual = 0.008393847, Final residual = 4.5449423e-06, No Iterations 6
sngrad(rho) : 0.6004911 0.1342416 -0.44981082
GAMG:  Solving for p_rgh, Initial residual = 0.091797677, Final residual = 0.0091319842, No Iterations 40
sngrad(rho) : 0.6004911 0.1342416 -0.44981082
sngrad(rho) : 0.6004911 0.1342416 -0.44981082
time step continuity errors : sum local = 0.78340762, global = 0.056628353, cumulative = 0.62205616
ExecutionTime = 26.06 s  ClockTime = 26 s
Inflow      : 3.2322213e-05 [kg/s]
Outflow     : 3.959795e-05 [kg/s]
EnergyInflow  : 9.754844 [W]
EnergyOutflow : 12.504388 [W]
EnergyBalance : 2.7495436 [W]
rho max/avg/min : 1.1764021 1.1257538 1.0597879
T   max/avg/min : 332.99042 313.86111 300.00221
P   max/avg/min : 101324.97 101317.58 101310.4
Prg max/avg/min : 101325.03 101323.09 101320.73
U   max/avg/min : 0.63718914 0.10096198 -0.0060688304
 
Iteration Number = 51

DILUPBiCG:  Solving for Ux, Initial residual = 0.16682379, Final residual = 7.6195414e-06, No Iterations 3
DILUPBiCG:  Solving for Uy, Initial residual = 0.17856796, Final residual = 7.8323021e-06, No Iterations 3
DILUPBiCG:  Solving for Uz, Initial residual = 0.028776383, Final residual = 9.0215494e-07, No Iterations 3
DILUPBiCG:  Solving for h, Initial residual = 0.0082700334, Final residual = 1.8427563e-07, No Iterations 8
sngrad(rho) : 0.59155424 0.13563961 -0.22388966
GAMG:  Solving for p_rgh, Initial residual = 0.097892845, Final residual = 0.0096771338, No Iterations 18
sngrad(rho) : 0.59155424 0.13563961 -0.22388966
sngrad(rho) : 0.59155424 0.13563961 -0.22388966
time step continuity errors : sum local = 0.84273498, global = 0.062932016, cumulative = 0.68498817
ExecutionTime = 26.64 s  ClockTime = 27 s
Inflow      : 3.0133186e-05 [kg/s]
Outflow     : 3.8218832e-05 [kg/s]
EnergyInflow  : 9.0941955 [W]
EnergyOutflow : 12.081114 [W]
EnergyBalance : 2.9869186 [W]
rho max/avg/min : 1.1764031 1.1248957 1.05804
T   max/avg/min : 333.52438 314.10367 300.00206
P   max/avg/min : 101325.02 101316.63 101308.51
Prg max/avg/min : 101325.08 101322.14 101318.77
U   max/avg/min : 0.63047131 0.1062494 -0.0047148293
 
Iteration Number = 52

DILUPBiCG:  Solving for Ux, Initial residual = 0.17973173, Final residual = 0.00016538355, No Iterations 2
DILUPBiCG:  Solving for Uy, Initial residual = 0.18683585, Final residual = 9.7340794e-06, No Iterations 3
DILUPBiCG:  Solving for Uz, Initial residual = 0.030967041, Final residual = 9.0594698e-07, No Iterations 3
DILUPBiCG:  Solving for h, Initial residual = 0.0081685767, Final residual = 3.6765126e-06, No Iterations 6
sngrad(rho) : 0.84658802 0.13594196 -0.20895897
GAMG:  Solving for p_rgh, Initial residual = 0.10160353, Final residual = 0.010155803, No Iterations 15
sngrad(rho) : 0.84658802 0.13594196 -0.20895897
sngrad(rho) : 0.84658802 0.13594196 -0.20895897
time step continuity errors : sum local = 0.89616863, global = -0.058377388, cumulative = 0.62661078
ExecutionTime = 27.18 s  ClockTime = 27 s
Inflow      : 4.4290244e-05 [kg/s]
Outflow     : 3.6789787e-05 [kg/s]
EnergyInflow  : 13.366796 [W]
EnergyOutflow : 11.64379 [W]
EnergyBalance : -1.7230058 [W]
rho max/avg/min : 1.1764039 1.1240631 1.0563519
T   max/avg/min : 334.05119 314.34491 300.00201
P   max/avg/min : 101324.87 101315.85 101307.09
Prg max/avg/min : 101324.93 101321.36 101317.32
U   max/avg/min : 0.63995664 0.11386034 -0.0020322076
 
Iteration Number = 53

DILUPBiCG:  Solving for Ux, Initial residual = 0.17936657, Final residual = 7.5765157e-06, No Iterations 3
DILUPBiCG:  Solving for Uy, Initial residual = 0.18686016, Final residual = 9.3691155e-06, No Iterations 3
DILUPBiCG:  Solving for Uz, Initial residual = 0.031058522, Final residual = 9.0295817e-07, No Iterations 3
DILUPBiCG:  Solving for h, Initial residual = 0.0080805862, Final residual = 3.212533e-06, No Iterations 6
sngrad(rho) : 0.76678065 0.13020454 -0.18927274
GAMG:  Solving for p_rgh, Initial residual = 0.10435105, Final residual = 0.0097712139, No Iterations 15
sngrad(rho) : 0.76678065 0.13020454 -0.18927274
sngrad(rho) : 0.76678065 0.13020454 -0.18927274
time step continuity errors : sum local = 0.86659438, global = -0.021183767, cumulative = 0.60542702
ExecutionTime = 27.73 s  ClockTime = 28 s
Inflow      : 3.8357934e-05 [kg/s]
Outflow     : 3.5636196e-05 [kg/s]
EnergyInflow  : 11.576424 [W]
EnergyOutflow : 11.294723 [W]
EnergyBalance : -0.28170152 [W]
rho max/avg/min : 1.176404 1.1232448 1.0546831
T   max/avg/min : 334.575 314.58317 300.00157
P   max/avg/min : 101324.86 101315.19 101305.75
Prg max/avg/min : 101324.92 101320.69 101315.99
U   max/avg/min : 0.6347928 0.12325921 0.00021900852
 
Iteration Number = 54

DILUPBiCG:  Solving for Ux, Initial residual = 0.1793726, Final residual = 1.9406695e-05, No Iterations 3
DILUPBiCG:  Solving for Uy, Initial residual = 0.19924796, Final residual = 1.5875418e-05, No Iterations 3
DILUPBiCG:  Solving for Uz, Initial residual = 0.032382989, Final residual = 9.9828666e-07, No Iterations 3
DILUPBiCG:  Solving for h, Initial residual = 0.0079914236, Final residual = 3.3566126e-06, No Iterations 6
sngrad(rho) : 0.56555367 0.12271311 -0.40331353
GAMG:  Solving for p_rgh, Initial residual = 0.11411036, Final residual = 0.010946917, No Iterations 9
sngrad(rho) : 0.56555367 0.12271311 -0.40331353
sngrad(rho) : 0.56555367 0.12271311 -0.40331353
time step continuity errors : sum local = 0.97499499, global = -0.025223041, cumulative = 0.58020398
ExecutionTime = 28.22 s  ClockTime = 28 s
Inflow      : 3.839662e-05 [kg/s]
Outflow     : 3.5155907e-05 [kg/s]
EnergyInflow  : 11.5881 [W]
EnergyOutflow : 11.156392 [W]
EnergyBalance : -0.4317077 [W]
rho max/avg/min : 1.1764048 1.122438 1.0530249
T   max/avg/min : 335.09603 314.819 300.00134
P   max/avg/min : 101324.89 101314.76 101304.82
Prg max/avg/min : 101324.94 101320.25 101315.1
U   max/avg/min : 0.64759288 0.13412542 0.00025806127
 
Iteration Number = 55

DILUPBiCG:  Solving for Ux, Initial residual = 0.1808234, Final residual = 1.7108805e-05, No Iterations 3
DILUPBiCG:  Solving for Uy, Initial residual = 0.20293412, Final residual = 1.5740525e-05, No Iterations 3
DILUPBiCG:  Solving for Uz, Initial residual = 0.033060347, Final residual = 1.0323799e-06, No Iterations 3
DILUPBiCG:  Solving for h, Initial residual = 0.0079089646, Final residual = 4.5163541e-06, No Iterations 6
sngrad(rho) : 0.6563109 0.11659179 -0.81479812
GAMG:  Solving for p_rgh, Initial residual = 0.117576, Final residual = 0.010585575, No Iterations 9
sngrad(rho) : 0.6563109 0.11659179 -0.81479812
sngrad(rho) : 0.6563109 0.11659179 -0.81479812
time step continuity errors : sum local = 0.94696933, global = -0.045688565, cumulative = 0.53451541
ExecutionTime = 28.72 s  ClockTime = 29 s
Inflow      : 4.1379797e-05 [kg/s]
Outflow     : 3.5509628e-05 [kg/s]
EnergyInflow  : 12.488423 [W]
EnergyOutflow : 11.278236 [W]
EnergyBalance : -1.2101865 [W]
rho max/avg/min : 1.1764059 1.1216443 1.0514051
T   max/avg/min : 335.60883 315.05227 300.00114
P   max/avg/min : 101324.88 101314.56 101304.24
Prg max/avg/min : 101325.08 101320.05 101314.52
U   max/avg/min : 0.67717399 0.14593101 0.00034683925
 
Iteration Number = 56

DILUPBiCG:  Solving for Ux, Initial residual = 0.1857073, Final residual = 1.3075275e-05, No Iterations 3
DILUPBiCG:  Solving for Uy, Initial residual = 0.20423337, Final residual = 2.5815263e-05, No Iterations 3
DILUPBiCG:  Solving for Uz, Initial residual = 0.032819467, Final residual = 1.1193823e-06, No Iterations 3
DILUPBiCG:  Solving for h, Initial residual = 0.0078292168, Final residual = 3.4332798e-06, No Iterations 7
sngrad(rho) : 0.68763652 0.1162283 -0.85994826
GAMG:  Solving for p_rgh, Initial residual = 0.12449341, Final residual = 0.012375708, No Iterations 8
sngrad(rho) : 0.68763652 0.1162283 -0.85994826
sngrad(rho) : 0.68763652 0.1162283 -0.85994826
time step continuity errors : sum local = 1.1079365, global = 0.019339846, cumulative = 0.55385526
ExecutionTime = 29.2 s  ClockTime = 29 s
Inflow      : 3.4298654e-05 [kg/s]
Outflow     : 3.678348e-05 [kg/s]
EnergyInflow  : 10.351334 [W]
EnergyOutflow : 11.687382 [W]
EnergyBalance : 1.3360482 [W]
rho max/avg/min : 1.1764065 1.1208628 1.0497767
T   max/avg/min : 336.12715 315.28325 300.00095
P   max/avg/min : 101324.96 101314.55 101303.99
Prg max/avg/min : 101325.2 101320.03 101314.27
U   max/avg/min : 0.70854563 0.15815701 0.00035493971
 
Iteration Number = 57

DILUPBiCG:  Solving for Ux, Initial residual = 0.19851758, Final residual = 1.538881e-05, No Iterations 3
DILUPBiCG:  Solving for Uy, Initial residual = 0.21359594, Final residual = 4.4246731e-05, No Iterations 3
DILUPBiCG:  Solving for Uz, Initial residual = 0.031795091, Final residual = 1.1529511e-06, No Iterations 3
DILUPBiCG:  Solving for h, Initial residual = 0.0077585692, Final residual = 5.1924755e-06, No Iterations 6
sngrad(rho) : 0.72870263 0.12235907 -0.37026399
GAMG:  Solving for p_rgh, Initial residual = 0.13495569, Final residual = 0.012586151, No Iterations 9
sngrad(rho) : 0.72870263 0.12235907 -0.37026399
sngrad(rho) : 0.72870263 0.12235907 -0.37026399
time step continuity errors : sum local = 1.1333846, global = 0.01934137, cumulative = 0.57319663
ExecutionTime = 29.7 s  ClockTime = 30 s
Inflow      : 3.6149065e-05 [kg/s]
Outflow     : 3.8634087e-05 [kg/s]
EnergyInflow  : 10.909788 [W]
EnergyOutflow : 12.277761 [W]
EnergyBalance : 1.3679729 [W]
rho max/avg/min : 1.1764074 1.1200894 1.0481489
T   max/avg/min : 336.65017 315.51286 300.00095
P   max/avg/min : 101324.95 101314.4 101303.65
Prg max/avg/min : 101325.15 101319.88 101313.95
U   max/avg/min : 0.73495674 0.17055001 0.00054625952
 
Iteration Number = 58

DILUPBiCG:  Solving for Ux, Initial residual = 0.20736132, Final residual = 1.1847656e-05, No Iterations 3
DILUPBiCG:  Solving for Uy, Initial residual = 0.21015751, Final residual = 0.00020295954, No Iterations 3
DILUPBiCG:  Solving for Uz, Initial residual = 0.030348501, Final residual = 1.1735173e-06, No Iterations 3
DILUPBiCG:  Solving for h, Initial residual = 0.0076532765, Final residual = 5.2543296e-07, No Iterations 8
sngrad(rho) : 0.90937238 0.13535776 -0.31635634
GAMG:  Solving for p_rgh, Initial residual = 0.13842974, Final residual = 0.013216922, No Iterations 9
sngrad(rho) : 0.90937238 0.13535776 -0.31635634
sngrad(rho) : 0.90937238 0.13535776 -0.31635634
time step continuity errors : sum local = 1.1869719, global = 0.01793913, cumulative = 0.59113576
ExecutionTime = 30.2 s  ClockTime = 30 s
Inflow      : 3.8565353e-05 [kg/s]
Outflow     : 4.0870212e-05 [kg/s]
EnergyInflow  : 11.639024 [W]
EnergyOutflow : 12.99085 [W]
EnergyBalance : 1.3518268 [W]
rho max/avg/min : 1.1764066 1.1193224 1.0465351
T   max/avg/min : 337.16788 315.74068 300.00115
P   max/avg/min : 101324.9 101314.17 101303.3
Prg max/avg/min : 101325.03 101319.64 101313.59
U   max/avg/min : 0.77080858 0.18323171 0.00052509599
 
Iteration Number = 59

DILUPBiCG:  Solving for Ux, Initial residual = 0.20401624, Final residual = 1.0947545e-05, No Iterations 3
DILUPBiCG:  Solving for Uy, Initial residual = 0.21492363, Final residual = 1.4973962e-05, No Iterations 3
DILUPBiCG:  Solving for Uz, Initial residual = 0.028435059, Final residual = 1.2095346e-06, No Iterations 3
DILUPBiCG:  Solving for h, Initial residual = 0.0076047111, Final residual = 4.0708335e-06, No Iterations 7
sngrad(rho) : 1.3112073 0.14623278 -0.46949317
GAMG:  Solving for p_rgh, Initial residual = 0.14276329, Final residual = 0.013013001, No Iterations 10
sngrad(rho) : 1.3112073 0.14623278 -0.46949317
sngrad(rho) : 1.3112073 0.14623278 -0.46949317
time step continuity errors : sum local = 1.161851, global = 0.013993152, cumulative = 0.60512891
ExecutionTime = 30.71 s  ClockTime = 31 s
Inflow      : 4.1302981e-05 [kg/s]
Outflow     : 4.3100852e-05 [kg/s]
EnergyInflow  : 12.46524 [W]
EnergyOutflow : 13.705541 [W]
EnergyBalance : 1.2403015 [W]
rho max/avg/min : 1.1764058 1.118562 1.044935
T   max/avg/min : 337.68269 315.96676 300.00117
P   max/avg/min : 101324.83 101313.94 101302.96
Prg max/avg/min : 101324.88 101319.42 101313.29
U   max/avg/min : 0.79724499 0.19618043 0.00038946829
 
Iteration Number = 60

DILUPBiCG:  Solving for Ux, Initial residual = 0.20937879, Final residual = 1.0858799e-05, No Iterations 3
DILUPBiCG:  Solving for Uy, Initial residual = 0.21559171, Final residual = 0.00019222286, No Iterations 3
DILUPBiCG:  Solving for Uz, Initial residual = 0.027008391, Final residual = 1.3437065e-06, No Iterations 3
DILUPBiCG:  Solving for h, Initial residual = 0.0075536445, Final residual = 3.8024996e-06, No Iterations 7
sngrad(rho) : 1.2483778 0.1542647 -0.4511114
GAMG:  Solving for p_rgh, Initial residual = 0.1536972, Final residual = 0.015051989, No Iterations 9
sngrad(rho) : 1.2483778 0.1542647 -0.4511114
sngrad(rho) : 1.2483778 0.1542647 -0.4511114
time step continuity errors : sum local = 1.3532083, global = 0.020948247, cumulative = 0.62607716
ExecutionTime = 31.2 s  ClockTime = 31 s
Inflow      : 4.2289676e-05 [kg/s]
Outflow     : 4.4981153e-05 [kg/s]
EnergyInflow  : 12.763024 [W]
EnergyOutflow : 14.312008 [W]
EnergyBalance : 1.5489841 [W]
rho max/avg/min : 1.1764053 1.1178115 1.0433422
T   max/avg/min : 338.19694 316.19043 300.00108
P   max/avg/min : 101324.78 101313.82 101302.77
Prg max/avg/min : 101324.84 101319.29 101313.15
U   max/avg/min : 0.82854398 0.20923789 0.00044534607
 
Iteration Number = 61

DILUPBiCG:  Solving for Ux, Initial residual = 0.20585073, Final residual = 1.3558651e-05, No Iterations 3
DILUPBiCG:  Solving for Uy, Initial residual = 0.21162992, Final residual = 5.873782e-05, No Iterations 3
DILUPBiCG:  Solving for Uz, Initial residual = 0.025578329, Final residual = 1.4161929e-06, No Iterations 3
DILUPBiCG:  Solving for h, Initial residual = 0.0075543554, Final residual = 6.9548042e-06, No Iterations 5
sngrad(rho) : 0.85949035 0.16013731 -0.60546466
GAMG:  Solving for p_rgh, Initial residual = 0.16230486, Final residual = 0.015274708, No Iterations 9
sngrad(rho) : 0.85949035 0.16013731 -0.60546466
sngrad(rho) : 0.85949035 0.16013731 -0.60546466
time step continuity errors : sum local = 1.3865539, global = 0.0166568, cumulative = 0.64273396
ExecutionTime = 31.69 s  ClockTime = 32 s
Inflow      : 4.4214334e-05 [kg/s]
Outflow     : 4.6354436e-05 [kg/s]
EnergyInflow  : 13.343886 [W]
EnergyOutflow : 14.75854 [W]
EnergyBalance : 1.4146543 [W]
rho max/avg/min : 1.1764055 1.1170718 1.0417979
T   max/avg/min : 338.70243 316.41174 300.00092
P   max/avg/min : 101324.78 101313.81 101302.79
Prg max/avg/min : 101324.83 101319.28 101313.15
U   max/avg/min : 0.88060976 0.2221897 0.00071610186
 
Iteration Number = 62

DILUPBiCG:  Solving for Ux, Initial residual = 0.19799463, Final residual = 2.5190323e-05, No Iterations 3
DILUPBiCG:  Solving for Uy, Initial residual = 0.2212839, Final residual = 0.00013025285, No Iterations 3
DILUPBiCG:  Solving for Uz, Initial residual = 0.024093686, Final residual = 1.5356471e-06, No Iterations 3
DILUPBiCG:  Solving for h, Initial residual = 0.0075469669, Final residual = 1.5279846e-06, No Iterations 8
sngrad(rho) : 0.91875277 0.16640387 -1.2949667
GAMG:  Solving for p_rgh, Initial residual = 0.16585811, Final residual = 0.015305434, No Iterations 9
sngrad(rho) : 0.91875277 0.16640387 -1.2949667
sngrad(rho) : 0.91875277 0.16640387 -1.2949667
time step continuity errors : sum local = 1.3919994, global = 0.00047412291, cumulative = 0.64320808
ExecutionTime = 32.19 s  ClockTime = 32 s
Inflow      : 4.7127673e-05 [kg/s]
Outflow     : 4.7188589e-05 [kg/s]
EnergyInflow  : 14.223132 [W]
EnergyOutflow : 15.033557 [W]
EnergyBalance : 0.81042499 [W]
rho max/avg/min : 1.1764062 1.1163406 1.0401984
T   max/avg/min : 339.21811 316.63141 300.00072
P   max/avg/min : 101324.78 101313.82 101302.85
Prg max/avg/min : 101324.83 101319.28 101313.14
U   max/avg/min : 0.94105989 0.23489513 0.00073192715
 
Iteration Number = 63

DILUPBiCG:  Solving for Ux, Initial residual = 0.20490138, Final residual = 4.5177911e-05, No Iterations 3
DILUPBiCG:  Solving for Uy, Initial residual = 0.22521386, Final residual = 2.3004696e-06, No Iterations 4
DILUPBiCG:  Solving for Uz, Initial residual = 0.022596547, Final residual = 1.8106372e-06, No Iterations 3
DILUPBiCG:  Solving for h, Initial residual = 0.0074989572, Final residual = 5.6293932e-06, No Iterations 7
sngrad(rho) : 0.89441953 0.17394811 -1.1567674
GAMG:  Solving for p_rgh, Initial residual = 0.17615833, Final residual = 0.017147248, No Iterations 8
sngrad(rho) : 0.89441953 0.17394811 -1.1567674
sngrad(rho) : 0.89441953 0.17394811 -1.1567674
[...]
sngrad(rho) : 1.144352 -1.3270675 -53.459255
GAMG:  Solving for p_rgh, Initial residual = 0.4893467, Final residual = 0.048423239, No Iterations 17
sngrad(rho) : 1.144352 -1.3270675 -53.459255
sngrad(rho) : 1.144352 -1.3270675 -53.459255
time step continuity errors : sum local = 6.5633878, global = -0.14681431, cumulative = 0.92677366
ExecutionTime = 71.13 s  ClockTime = 71 s
Inflow      : 7.500835e-05 [kg/s]
Outflow     : 5.614532e-05 [kg/s]
EnergyInflow  : 22.637521 [W]
EnergyOutflow : 19.011063 [W]
EnergyBalance : -3.626458 [W]
rho max/avg/min : 1.1764214 1.080418 0.94425053
T   max/avg/min : 373.69306 328.05113 299.99938
P   max/avg/min : 101325.87 101316.24 101304.99
Prg max/avg/min : 101327.34 101321.47 101314.28
U   max/avg/min : 1.966916 0.46113865 -1.6192658
 
Iteration Number = 134

DILUPBiCG:  Solving for Ux, Initial residual = 0.21292836, Final residual = 1.8777764e-05, No Iterations 3
DILUPBiCG:  Solving for Uy, Initial residual = 0.20398984, Final residual = 2.7899128e-05, No Iterations 3
DILUPBiCG:  Solving for Uz, Initial residual = 0.059324875, Final residual = 9.6104992e-06, No Iterations 3
DILUPBiCG:  Solving for h, Initial residual = 0.0097880937, Final residual = 2.1227029e-06, No Iterations 8
sngrad(rho) : 0.95093203 -1.5704386 -53.398239
GAMG:  Solving for p_rgh, Initial residual = 0.49335152, Final residual = 0.043846309, No Iterations 18
sngrad(rho) : 0.95093203 -1.5704386 -53.398239
sngrad(rho) : 0.95093203 -1.5704386 -53.398239
time step continuity errors : sum local = 5.906093, global = -0.097320025, cumulative = 0.82945363
ExecutionTime = 71.78 s  ClockTime = 72 s
Inflow      : 6.8882346e-05 [kg/s]
Outflow     : 5.6378452e-05 [kg/s]
EnergyInflow  : 20.788693 [W]
EnergyOutflow : 19.142773 [W]
EnergyBalance : -1.6459195 [W]
rho max/avg/min : 1.1764187 1.0801966 0.94312769
T   max/avg/min : 374.14727 328.13697 299.99949
P   max/avg/min : 101326.27 101318.89 101310.58
Prg max/avg/min : 101329.18 101324.12 101318.14
U   max/avg/min : 1.9484205 0.46290105 -1.3182801
 
Iteration Number = 135

DILUPBiCG:  Solving for Ux, Initial residual = 0.2111374, Final residual = 2.5058041e-05, No Iterations 3
DILUPBiCG:  Solving for Uy, Initial residual = 0.20665767, Final residual = 6.7132842e-05, No Iterations 3
DILUPBiCG:  Solving for Uz, Initial residual = 0.06053883, Final residual = 1.5883707e-05, No Iterations 3
DILUPBiCG:  Solving for h, Initial residual = 0.0098806114, Final residual = 2.1719786e-06, No Iterations 8
sngrad(rho) : 0.91734626 -0.44550604 -50.742497
GAMG:  Solving for p_rgh, Initial residual = 0.50213437, Final residual = 0.047265197, No Iterations 18
sngrad(rho) : 0.91734626 -0.44550604 -50.742497
sngrad(rho) : 0.91734626 -0.44550604 -50.742497
time step continuity errors : sum local = 6.4050391, global = 0.080279657, cumulative = 0.90973329
ExecutionTime = 72.41 s  ClockTime = 73 s
Inflow      : 5.587204e-05 [kg/s]
Outflow     : 6.6186549e-05 [kg/s]
EnergyInflow  : 16.862182 [W]
EnergyOutflow : 22.393691 [W]
EnergyBalance : 5.5315089 [W]
rho max/avg/min : 1.1764165 1.0799663 0.94210525
T   max/avg/min : 374.57495 328.22505 299.99966
P   max/avg/min : 101326.19 101319.91 101312.78
Prg max/avg/min : 101329.79 101325.14 101319.25
U   max/avg/min : 2.0303853 0.4598299 -1.4055204
 
Iteration Number = 136

DILUPBiCG:  Solving for Ux, Initial residual = 0.20095294, Final residual = 2.6808577e-05, No Iterations 3
DILUPBiCG:  Solving for Uy, Initial residual = 0.19722206, Final residual = 6.1084569e-05, No Iterations 3
DILUPBiCG:  Solving for Uz, Initial residual = 0.062396394, Final residual = 1.685312e-05, No Iterations 3
DILUPBiCG:  Solving for h, Initial residual = 0.0096956855, Final residual = 7.9081726e-06, No Iterations 7
sngrad(rho) : 1.096769 -0.16769895 -2.0939568
GAMG:  Solving for p_rgh, Initial residual = 0.50679143, Final residual = 0.048972307, No Iterations 18
sngrad(rho) : 1.096769 -0.16769895 -2.0939568
sngrad(rho) : 1.096769 -0.16769895 -2.0939568
time step continuity errors : sum local = 6.6254156, global = 0.045301325, cumulative = 0.95503461
ExecutionTime = 73.03 s  ClockTime = 73 s
Inflow      : 7.7972225e-05 [kg/s]
Outflow     : 8.3792641e-05 [kg/s]
EnergyInflow  : 23.532019 [W]
EnergyOutflow : 28.181744 [W]
EnergyBalance : 4.6497252 [W]
rho max/avg/min : 1.1764121 1.0797208 0.94094007
T   max/avg/min : 375.05479 328.31234 299.99974
P   max/avg/min : 101325.32 101319.34 101311.67
Prg max/avg/min : 101329.24 101324.56 101318.26
U   max/avg/min : 1.9613081 0.45689577 -1.5359849
 
Iteration Number = 137

DILUPBiCG:  Solving for Ux, Initial residual = 0.20629769, Final residual = 2.9713791e-05, No Iterations 3
DILUPBiCG:  Solving for Uy, Initial residual = 0.19639415, Final residual = 3.7560617e-05, No Iterations 3
DILUPBiCG:  Solving for Uz, Initial residual = 0.064400607, Final residual = 1.0020815e-05, No Iterations 3
DILUPBiCG:  Solving for h, Initial residual = 0.0096230978, Final residual = 5.5041533e-06, No Iterations 8
sngrad(rho) : 1.4013274 -0.068987776 -1.0700993
GAMG:  Solving for p_rgh, Initial residual = 0.50445469, Final residual = 0.049393945, No Iterations 18
sngrad(rho) : 1.4013274 -0.068987776 -1.0700993
sngrad(rho) : 1.4013274 -0.068987776 -1.0700993
time step continuity errors : sum local = 6.6689791, global = 0.049267609, cumulative = 1.0043022
ExecutionTime = 73.67 s  ClockTime = 74 s
Inflow      : 9.8746188e-05 [kg/s]
Outflow     : 0.0001050762 [kg/s]
EnergyInflow  : 29.801602 [W]
EnergyOutflow : 35.156339 [W]
EnergyBalance : 5.354737 [W]
rho max/avg/min : 1.1764077 1.0794564 0.93974825
T   max/avg/min : 375.52854 328.40014 299.99978
P   max/avg/min : 101324.24 101316.26 101307.02
Prg max/avg/min : 101326.52 101321.48 101314.45
U   max/avg/min : 2.0648438 0.4578029 -1.573067
 
Iteration Number = 138

DILUPBiCG:  Solving for Ux, Initial residual = 0.21671492, Final residual = 2.415267e-05, No Iterations 3
DILUPBiCG:  Solving for Uy, Initial residual = 0.20031752, Final residual = 3.4224402e-05, No Iterations 3
DILUPBiCG:  Solving for Uz, Initial residual = 0.064674181, Final residual = 1.0962622e-05, No Iterations 3
DILUPBiCG:  Solving for h, Initial residual = 0.0096984149, Final residual = 2.714138e-06, No Iterations 8
sngrad(rho) : 1.3334429 0.10288921 -0.88378868
GAMG:  Solving for p_rgh, Initial residual = 0.50169512, Final residual = 0.049882053, No Iterations 19
sngrad(rho) : 1.3334429 0.10288921 -0.88378868
sngrad(rho) : 1.3334429 0.10288921 -0.88378868
time step continuity errors : sum local = 6.8351105, global = 0.16314988, cumulative = 1.1674521
ExecutionTime = 74.3 s  ClockTime = 74 s
Inflow      : 0.00010479454 [kg/s]
Outflow     : 0.0001257564 [kg/s]
EnergyInflow  : 31.626994 [W]
EnergyOutflow : 41.927004 [W]
EnergyBalance : 10.30001 [W]
rho max/avg/min : 1.1764028 1.0791565 0.93857423
T   max/avg/min : 375.97759 328.49167 299.99972
P   max/avg/min : 101324.08 101310.68 101296.35
Prg max/avg/min : 101324.14 101315.9 101306.59
U   max/avg/min : 1.9347057 0.46669863 -1.4875204
 
Iteration Number = 139

DILUPBiCG:  Solving for Ux, Initial residual = 0.21197463, Final residual = 2.499699e-05, No Iterations 3
DILUPBiCG:  Solving for Uy, Initial residual = 0.22376043, Final residual = 5.3054087e-05, No Iterations 3
DILUPBiCG:  Solving for Uz, Initial residual = 0.065738283, Final residual = 1.1436967e-05, No Iterations 3
DILUPBiCG:  Solving for h, Initial residual = 0.010221893, Final residual = 2.5546588e-06, No Iterations 8
sngrad(rho) : 2.4179816 0.34484683 -0.67491152
GAMG:  Solving for p_rgh, Initial residual = 0.50741367, Final residual = 0.046993107, No Iterations 20
sngrad(rho) : 2.4179816 0.34484683 -0.67491152
sngrad(rho) : 2.4179816 0.34484683 -0.67491152
time step continuity errors : sum local = 6.5834546, global = 0.203185, cumulative = 1.3706371
ExecutionTime = 74.95 s  ClockTime = 75 s
Inflow      : 0.00011525281 [kg/s]
Outflow     : 0.00014135847 [kg/s]
EnergyInflow  : 34.783297 [W]
EnergyOutflow : 47.045865 [W]
EnergyBalance : 12.262568 [W]
rho max/avg/min : 1.1764013 1.0788516 0.93742932
T   max/avg/min : 376.40388 328.57708 299.99945
P   max/avg/min : 101324.09 101304.5 101284.01
Prg max/avg/min : 101324.15 101309.72 101294.09
U   max/avg/min : 2.1743557 0.48724246 -1.4695453
 
Iteration Number = 140

DILUPBiCG:  Solving for Ux, Initial residual = 0.20120726, Final residual = 2.2000965e-05, No Iterations 3
DILUPBiCG:  Solving for Uy, Initial residual = 0.20281286, Final residual = 3.0989523e-05, No Iterations 3
DILUPBiCG:  Solving for Uz, Initial residual = 0.066506219, Final residual = 1.1373408e-05, No Iterations 3
DILUPBiCG:  Solving for h, Initial residual = 0.010034605, Final residual = 5.4586039e-06, No Iterations 7
sngrad(rho) : 2.7161788 0.43723017 -0.88755818
GAMG:  Solving for p_rgh, Initial residual = 0.49870711, Final residual = 0.048940797, No Iterations 18
sngrad(rho) : 2.7161788 0.43723017 -0.88755818
sngrad(rho) : 2.7161788 0.43723017 -0.88755818
time step continuity errors : sum local = 6.9370439, global = -0.21106432, cumulative = 1.1595728
ExecutionTime = 75.55 s  ClockTime = 76 s
Inflow      : 0.00017502101 [kg/s]
Outflow     : 0.000147903 [kg/s]
EnergyInflow  : 52.821345 [W]
EnergyOutflow : 49.245212 [W]
EnergyBalance : -3.5761329 [W]
rho max/avg/min : 1.1764022 1.0785684 0.93627676
T   max/avg/min : 376.85006 328.65462 299.99917
P   max/avg/min : 101323.34 101298.22 101270.84
Prg max/avg/min : 101323.4 101303.44 101280.88
U   max/avg/min : 2.1739398 0.52059241 -1.3914638
 
Iteration Number = 141

DILUPBiCG:  Solving for Ux, Initial residual = 0.20389927, Final residual = 2.0523107e-05, No Iterations 3
DILUPBiCG:  Solving for Uy, Initial residual = 0.1976846, Final residual = 6.8582612e-05, No Iterations 3
DILUPBiCG:  Solving for Uz, Initial residual = 0.065568193, Final residual = 3.1763691e-06, No Iterations 4
DILUPBiCG:  Solving for h, Initial residual = 0.010121327, Final residual = 8.1841806e-06, No Iterations 7
sngrad(rho) : 2.6523306 0.4533082 -0.65292902
GAMG:  Solving for p_rgh, Initial residual = 0.48329829, Final residual = 0.046881378, No Iterations 18
sngrad(rho) : 2.6523306 0.4533082 -0.65292902
sngrad(rho) : 2.6523306 0.4533082 -0.65292902
time step continuity errors : sum local = 6.5779982, global = -0.16241131, cumulative = 0.99716148
ExecutionTime = 76.13 s  ClockTime = 76 s
Inflow      : 0.00016734063 [kg/s]
Outflow     : 0.00014647366 [kg/s]
EnergyInflow  : 50.503391 [W]
EnergyOutflow : 48.859753 [W]
EnergyBalance : -1.6436379 [W]
rho max/avg/min : 1.1763954 1.0783286 0.93505402
T   max/avg/min : 377.31339 328.71897 299.99856
P   max/avg/min : 101323.23 101294.14 101261.61
Prg max/avg/min : 101323.29 101299.35 101271.7
U   max/avg/min : 2.1196672 0.56403242 -1.3858981
 
Iteration Number = 142

DILUPBiCG:  Solving for Ux, Initial residual = 0.20143423, Final residual = 3.3310806e-05, No Iterations 3
DILUPBiCG:  Solving for Uy, Initial residual = 0.19306429, Final residual = 4.3142532e-05, No Iterations 3
DILUPBiCG:  Solving for Uz, Initial residual = 0.064926457, Final residual = 1.0189939e-06, No Iterations 4
DILUPBiCG:  Solving for h, Initial residual = 0.010101598, Final residual = 4.0134312e-06, No Iterations 7
sngrad(rho) : 2.2554415 0.43195838 -0.23210642
GAMG:  Solving for p_rgh, Initial residual = 0.47935311, Final residual = 0.046769022, No Iterations 18
sngrad(rho) : 2.2554415 0.43195838 -0.23210642
sngrad(rho) : 2.2554415 0.43195838 -0.23210642
time step continuity errors : sum local = 6.5822813, global = -0.1154506, cumulative = 0.88171088
ExecutionTime = 76.72 s  ClockTime = 77 s
Inflow      : 0.00015209543 [kg/s]
Outflow     : 0.00013726208 [kg/s]
EnergyInflow  : 45.902382 [W]
EnergyOutflow : 45.925386 [W]
EnergyBalance : 0.023004558 [W]
rho max/avg/min : 1.1763952 1.0781569 0.93394086
T   max/avg/min : 377.74218 328.76987 299.99827
P   max/avg/min : 101323.84 101292.93 101258.14
Prg max/avg/min : 101324.02 101298.14 101268.14
U   max/avg/min : 2.0574965 0.61294027 -1.2655397
 
Iteration Number = 143

DILUPBiCG:  Solving for Ux, Initial residual = 0.18882477, Final residual = 2.5965533e-05, No Iterations 3
DILUPBiCG:  Solving for Uy, Initial residual = 0.18837315, Final residual = 1.4296256e-05, No Iterations 4
DILUPBiCG:  Solving for Uz, Initial residual = 0.062634177, Final residual = 2.1328296e-05, No Iterations 3
DILUPBiCG:  Solving for h, Initial residual = 0.0098929957, Final residual = 5.3190415e-06, No Iterations 7
sngrad(rho) : 1.8455112 0.37614865 -0.03878641
GAMG:  Solving for p_rgh, Initial residual = 0.47405135, Final residual = 0.046641031, No Iterations 19
sngrad(rho) : 1.8455112 0.37614865 -0.03878641
sngrad(rho) : 1.8455112 0.37614865 -0.03878641
time step continuity errors : sum local = 6.5559668, global = -0.061127142, cumulative = 0.82058374
ExecutionTime = 77.31 s  ClockTime = 77 s
Inflow      : 0.0001294675 [kg/s]
Outflow     : 0.00012161375 [kg/s]
EnergyInflow  : 39.073276 [W]
EnergyOutflow : 40.866287 [W]
EnergyBalance : 1.7930103 [W]
rho max/avg/min : 1.1764016 1.0780635 0.93282331
T   max/avg/min : 378.14646 328.80609 299.99833
P   max/avg/min : 101325.51 101294.68 101259.37
Prg max/avg/min : 101325.68 101299.89 101269.25
U   max/avg/min : 2.2939449 0.66162396 -1.2980966
 
Iteration Number = 144

DILUPBiCG:  Solving for Ux, Initial residual = 0.18594434, Final residual = 3.1819482e-05, No Iterations 3
DILUPBiCG:  Solving for Uy, Initial residual = 0.18247639, Final residual = 3.5486486e-05, No Iterations 3
DILUPBiCG:  Solving for Uz, Initial residual = 0.058201298, Final residual = 1.6781098e-05, No Iterations 3
DILUPBiCG:  Solving for h, Initial residual = 0.0097268346, Final residual = 5.269671e-06, No Iterations 8
sngrad(rho) : 1.4932562 0.26752572 -0.70725444
GAMG:  Solving for p_rgh, Initial residual = 0.4751082, Final residual = 0.044099576, No Iterations 20
sngrad(rho) : 1.4932562 0.26752572 -0.70725444
sngrad(rho) : 1.4932562 0.26752572 -0.70725444
time step continuity errors : sum local = 6.1267913, global = -0.12633372, cumulative = 0.69425001
ExecutionTime = 77.92 s  ClockTime = 78 s
Inflow      : 0.00011858408 [kg/s]
Outflow     : 0.00010235244 [kg/s]
EnergyInflow  : 35.788668 [W]
EnergyOutflow : 34.604398 [W]
EnergyBalance : -1.1842704 [W]
rho max/avg/min : 1.176421 1.0780466 0.93179042
T   max/avg/min : 378.59168 328.82816 299.99814
P   max/avg/min : 101326.71 101299.93 101267.4
Prg max/avg/min : 101326.88 101305.14 101277.4
U   max/avg/min : 2.4408393 0.70411589 -1.3086454
 
Iteration Number = 145

DILUPBiCG:  Solving for Ux, Initial residual = 0.20146854, Final residual = 3.619556e-05, No Iterations 3
DILUPBiCG:  Solving for Uy, Initial residual = 0.18781942, Final residual = 3.4886801e-05, No Iterations 3
DILUPBiCG:  Solving for Uz, Initial residual = 0.053201558, Final residual = 8.4944725e-06, No Iterations 3
DILUPBiCG:  Solving for h, Initial residual = 0.009978031, Final residual = 2.8414282e-06, No Iterations 8
sngrad(rho) : 1.0986277 -1.6139569 -52.738431
GAMG:  Solving for p_rgh, Initial residual = 0.47255219, Final residual = 0.046799157, No Iterations 20
sngrad(rho) : 1.0986277 -1.6139569 -52.738431
sngrad(rho) : 1.0986277 -1.6139569 -52.738431
time step continuity errors : sum local = 6.3721877, global = 0.15336618, cumulative = 0.8476162
ExecutionTime = 78.52 s  ClockTime = 79 s
Inflow      : 6.3841753e-05 [kg/s]
Outflow     : 8.3546582e-05 [kg/s]
EnergyInflow  : 19.267439 [W]
EnergyOutflow : 28.456853 [W]
EnergyBalance : 9.1894144 [W]
rho max/avg/min : 1.1764345 1.0780965 0.93073306
T   max/avg/min : 379.0508 328.84059 299.99814
P   max/avg/min : 101328.82 101309.99 101285.87
Prg max/avg/min : 101329.6 101315.19 101295.86
U   max/avg/min : 2.4375758 0.73173345 -1.0629504
 
Iteration Number = 146

DILUPBiCG:  Solving for Ux, Initial residual = 0.20842514, Final residual = 3.0425972e-05, No Iterations 3
DILUPBiCG:  Solving for Uy, Initial residual = 0.19308673, Final residual = 7.1350113e-05, No Iterations 3
DILUPBiCG:  Solving for Uz, Initial residual = 0.050810452, Final residual = 1.1942503e-05, No Iterations 3
DILUPBiCG:  Solving for h, Initial residual = 0.0098604427, Final residual = 4.2860305e-06, No Iterations 8
sngrad(rho) : 0.65583604 -3.6110483 -52.678366
GAMG:  Solving for p_rgh, Initial residual = 0.47757133, Final residual = 0.046956987, No Iterations 20
sngrad(rho) : 0.65583604 -3.6110483 -52.678366
sngrad(rho) : 0.65583604 -3.6110483 -52.678366
time step continuity errors : sum local = 6.3075696, global = -0.51630625, cumulative = 0.33130995
ExecutionTime = 79.13 s  ClockTime = 79 s
Inflow      : 0.00013695863 [kg/s]
Outflow     : 7.0622452e-05 [kg/s]
EnergyInflow  : 41.334122 [W]
EnergyOutflow : 24.221026 [W]
EnergyBalance : -17.113096 [W]
rho max/avg/min : 1.1764606 1.0782017 0.92979697
T   max/avg/min : 379.4893 328.85063 299.99843
P   max/avg/min : 101329.37 101319.83 101306.63
Prg max/avg/min : 101332.07 101325.03 101316.25
U   max/avg/min : 2.2999785 0.73810459 -1.0955827
 
Iteration Number = 147

DILUPBiCG:  Solving for Ux, Initial residual = 0.19451688, Final residual = 0.00011562902, No Iterations 3
DILUPBiCG:  Solving for Uy, Initial residual = 0.18658234, Final residual = 8.1919075e-05, No Iterations 3
DILUPBiCG:  Solving for Uz, Initial residual = 0.049436623, Final residual = 1.2968266e-05, No Iterations 3
DILUPBiCG:  Solving for h, Initial residual = 0.0095823072, Final residual = 7.6767384e-06, No Iterations 7
sngrad(rho) : 0.89528513 -4.3533475 -52.622718
GAMG:  Solving for p_rgh, Initial residual = 0.49030614, Final residual = 0.045544119, No Iterations 19
sngrad(rho) : 0.89528513 -4.3533475 -52.622718
sngrad(rho) : 0.89528513 -4.3533475 -52.622718
time step continuity errors : sum local = 5.9744106, global = 0.14107393, cumulative = 0.47238387
ExecutionTime = 79.72 s  ClockTime = 80 s
Inflow      : 5.0969031e-05 [kg/s]
Outflow     : 6.9094524e-05 [kg/s]
EnergyInflow  : 15.382454 [W]
EnergyOutflow : 23.743007 [W]
EnergyBalance : 8.3605533 [W]
rho max/avg/min : 1.1764558 1.0782931 0.92892766
T   max/avg/min : 379.8868 328.86309 299.99879
P   max/avg/min : 101337.93 101330.09 101323.69
Prg max/avg/min : 101348.93 101335.29 101324.97
U   max/avg/min : 2.3169415 0.72371038 -1.3039599
 
Iteration Number = 148

DILUPBiCG:  Solving for Ux, Initial residual = 0.18823714, Final residual = 2.9376252e-05, No Iterations 3
DILUPBiCG:  Solving for Uy, Initial residual = 0.17592305, Final residual = 5.2806976e-05, No Iterations 3
DILUPBiCG:  Solving for Uz, Initial residual = 0.052718765, Final residual = 6.461169e-06, No Iterations 3
DILUPBiCG:  Solving for h, Initial residual = 0.0093269609, Final residual = 1.0103901e-06, No Iterations 9
sngrad(rho) : 0.85199099 -2.3242095 -52.557357
GAMG:  Solving for p_rgh, Initial residual = 0.47460942, Final residual = 0.046651892, No Iterations 20
sngrad(rho) : 0.85199099 -2.3242095 -52.557357
sngrad(rho) : 0.85199099 -2.3242095 -52.557357
time step continuity errors : sum local = 6.322683, global = 0.22408756, cumulative = 0.69647143
ExecutionTime = 80.33 s  ClockTime = 80 s
Inflow      : 5.3163204e-05 [kg/s]
Outflow     : 8.1954474e-05 [kg/s]
EnergyInflow  : 16.044656 [W]
EnergyOutflow : 28.012196 [W]
EnergyBalance : 11.967541 [W]
rho max/avg/min : 1.1764616 1.0783701 0.92803094
T   max/avg/min : 380.31746 328.88004 299.99928
P   max/avg/min : 101347.84 101334.55 101324.45
Prg max/avg/min : 101358.82 101339.75 101324.73
U   max/avg/min : 2.2368593 0.69399771 -1.3069532
 
Iteration Number = 149

DILUPBiCG:  Solving for Ux, Initial residual = 0.18892601, Final residual = 4.3475635e-05, No Iterations 3
DILUPBiCG:  Solving for Uy, Initial residual = 0.17786646, Final residual = 1.686197e-06, No Iterations 4
DILUPBiCG:  Solving for Uz, Initial residual = 0.056268287, Final residual = 9.8121899e-06, No Iterations 3
DILUPBiCG:  Solving for h, Initial residual = 0.0092193738, Final residual = 5.1694054e-06, No Iterations 7
sngrad(rho) : 0.97765119 -0.28254804 -2.393612
