/*---------------------------------------------------------------------------*\
| =========                 |                                                 |
| \\      /  F ield         | OpenFOAM: The Open Source CFD Toolbox           |
|  \\    /   O peration     | Version:  4.0                                   |
|   \\  /    A nd           | Web:      www.OpenFOAM.org                      |
|    \\/     M anipulation  |                                                 |
\*---------------------------------------------------------------------------*/
Build  : 4.0-665f1db4c1f1
Exec   : pupoBuoyantSimpleFoam
Date   : Oct 10 2016
Time   : 17:08:00
Host   : "SC500"
PID    : 9438
Case   : /home/pedro/Documents/ThesisProject/OpenFoam/validation7rod/justfluid
nProcs : 1
sigFpe : Enabling floating point exception trapping (FOAM_SIGFPE).
fileModificationChecking : Monitoring run-time modified files using timeStampMaster
allowSystemOperations : Allowing user-supplied system call operations

// * * * * * * * * * * * * * * * * * * * * * * * * * * * * * * * * * * * * * //
Create time

Create mesh for time = 0


SIMPLE: convergence criteria
    field p_rgh	 tolerance 0.0001
    field Uz	 tolerance 0.0001
    field h	 tolerance 0.0001

Reading thermophysical properties

Selecting thermodynamics package 
{
    type            heRhoThermo;
    mixture         pureMixture;
    transport       sutherland;
    thermo          hConst;
    equationOfState perfectGas;
    specie          specie;
    energy          sensibleEnthalpy;
}


Reading g

Reading hRef
Calculating field g.h

Selecting turbulence model type laminar
No MRF models present

Selecting radiationModel none
rho max/avg/min : 1.176411545473439 1.17636861431876 1.176279441001037
T   max/avg/min : 300 300 300
P   max/avg/min : 101324.9852976208 101321.2876132749 101313.6070654236
Prg max/avg/min : 101324.9999999989 101324.9998816329 101324.9993594679
U   max/avg/min : 0 0 0
Prg max-min : 0.0006405309977708384
 
No finite volume options present


Starting Iteration loop

Iteration Number = 1

DILUPBiCG:  Solving for Ux, Initial residual = 0.9999999865352409, Final residual = 0.0002107673421774602, No Iterations 2
DILUPBiCG:  Solving for Uy, Initial residual = 0.9999999903120185, Final residual = 0.0001368812393188412, No Iterations 2
DILUPBiCG:  Solving for Uz, Initial residual = 0.9999999992701244, Final residual = 0.0001968624940765573, No Iterations 2
DILUPBiCG:  Solving for h, Initial residual = 0.9999999999872831, Final residual = 0.0001676017255064051, No Iterations 3
GAMG:  Solving for p_rgh, Initial residual = 0.999916460770769, Final residual = 0.04152162079806638, No Iterations 1
time step continuity errors : sum local = 0.03431156227936538, global = 3.942612868260815e-06, cumulative = 3.942612868260815e-06
ExecutionTime = 2.16 s  ClockTime = 2 s
Inflow      : -1.236734174485168e-11 [kg/s]
Outflow     : 4.941883542092151e-10 [kg/s]
EnergyInflow  : -3.732463738596234e-06 [W]
EnergyOutflow : 0.0001491460453007321 [W]
EnergyBalance : 0.0001528785090393283 [W]
rho max/avg/min : 1.176411545473441 1.176254948229716 1.173966644993115
T   max/avg/min : 300.591020882353 300.0290158900887 299.9999999999995
P   max/avg/min : 101324.9853088116 101321.2878312902 101313.6071379541
Prg max/avg/min : 101325.0002459536 101324.9997408652 101324.9842779202
U   max/avg/min : 5.616101255089127e-05 3.34466935131031e-08 -3.5404522010512e-06
Prg max-min : 0.01596803341817576
 
Iteration Number = 2

DILUPBiCG:  Solving for Ux, Initial residual = 0.4676530348154678, Final residual = 1.035124754000823e-05, No Iterations 2
DILUPBiCG:  Solving for Uy, Initial residual = 0.4145321269392704, Final residual = 1.220503746941137e-05, No Iterations 2
DILUPBiCG:  Solving for Uz, Initial residual = 0.4507947183602968, Final residual = 2.588618920322018e-05, No Iterations 2
DILUPBiCG:  Solving for h, Initial residual = 0.1798221116118559, Final residual = 2.926733149571325e-05, No Iterations 3
GAMG:  Solving for p_rgh, Initial residual = 0.416787962194632, Final residual = 0.03811640460984128, No Iterations 1
time step continuity errors : sum local = 0.1104121225196323, global = 9.252881850233265e-06, cumulative = 1.319549471849408e-05
ExecutionTime = 3.1 s  ClockTime = 3 s
Inflow      : -4.631683008764647e-11 [kg/s]
Outflow     : 1.142514070047337e-09 [kg/s]
EnergyInflow  : -1.397841932045172e-05 [W]
EnergyOutflow : 0.0003449925319528373 [W]
EnergyBalance : 0.000358970951273289 [W]
rho max/avg/min : 1.176411545488139 1.176147990228997 1.172722902297904
T   max/avg/min : 300.909839185556 300.0563485494383 299.9999999999991
P   max/avg/min : 101324.9853039368 101321.2878709601 101313.6052760809
Prg max/avg/min : 101325.0010351378 101324.9994428541 101324.9631249643
U   max/avg/min : 0.0001366288511370844 9.598402873984175e-08 -1.67267530104184e-05
Prg max-min : 0.03791017351613846
 
Iteration Number = 3

DILUPBiCG:  Solving for Ux, Initial residual = 0.4137393591198768, Final residual = 1.611587467649356e-05, No Iterations 2
DILUPBiCG:  Solving for Uy, Initial residual = 0.3192887752708079, Final residual = 1.624865241480613e-05, No Iterations 2
DILUPBiCG:  Solving for Uz, Initial residual = 0.3135235118433149, Final residual = 2.87968395744603e-05, No Iterations 2
DILUPBiCG:  Solving for h, Initial residual = 0.108748979898483, Final residual = 3.193380924181262e-06, No Iterations 4
GAMG:  Solving for p_rgh, Initial residual = 0.133507661300391, Final residual = 0.01105250999556985, No Iterations 3
time step continuity errors : sum local = 0.03656868129340464, global = 1.648388234537498e-05, cumulative = 2.967937706386907e-05
ExecutionTime = 4.05 s  ClockTime = 4 s
Inflow      : -1.783119824853229e-10 [kg/s]
Outflow     : 1.939573991149971e-09 [kg/s]
EnergyInflow  : -5.381455631407042e-05 [W]
EnergyOutflow : 0.0005858268642490672 [W]
EnergyBalance : 0.0006396414205631376 [W]
rho max/avg/min : 1.176411545518734 1.176041762204115 1.171816849606501
T   max/avg/min : 301.1424882009611 300.0835110863645 299.9999999999983
P   max/avg/min : 101324.985303045 101321.2878846892 101313.6022863999
Prg max/avg/min : 101325.0027383568 101324.9991210307 101324.9516358403
U   max/avg/min : 0.0001959574069138587 1.590491216574984e-07 -3.846679034692053e-05
Prg max-min : 0.05110251647420228
 
Iteration Number = 4

DILUPBiCG:  Solving for Ux, Initial residual = 0.7559279474967907, Final residual = 3.115279087457253e-05, No Iterations 2
DILUPBiCG:  Solving for Uy, Initial residual = 0.5175106145164248, Final residual = 2.42827197467125e-05, No Iterations 2
DILUPBiCG:  Solving for Uz, Initial residual = 0.2492278857406991, Final residual = 3.004051530001455e-05, No Iterations 2
DILUPBiCG:  Solving for h, Initial residual = 0.07794218703435268, Final residual = 1.528189194073161e-05, No Iterations 3
GAMG:  Solving for p_rgh, Initial residual = 0.09909950443291841, Final residual = 0.006568947793021292, No Iterations 2
time step continuity errors : sum local = 0.02161361523132623, global = 2.406847403201356e-05, cumulative = 5.374785109588263e-05
ExecutionTime = 5 s  ClockTime = 5 s
Inflow      : -2.710015960027502e-10 [kg/s]
Outflow     : 2.821369636218989e-09 [kg/s]
EnergyInflow  : -8.178828167362985e-05 [W]
EnergyOutflow : 0.0008523386441849721 [W]
EnergyBalance : 0.000934126925858602 [W]
rho max/avg/min : 1.1764115455364 1.175935335777704 1.171074080485134
T   max/avg/min : 301.3335133702365 300.1107379281897 299.999999999996
P   max/avg/min : 101324.98530297 101321.2881490168 101313.6078555518
Prg max/avg/min : 101325.0017923841 101324.9990493159 101324.9515161048
U   max/avg/min : 0.0002465627996331046 2.292497141383891e-07 -6.02903479520819e-05
Prg max-min : 0.05027627928939182
 
Iteration Number = 5

DILUPBiCG:  Solving for Ux, Initial residual = 0.4031104819864494, Final residual = 3.857303301010261e-05, No Iterations 2
DILUPBiCG:  Solving for Uy, Initial residual = 0.3272949340258672, Final residual = 4.609605291858977e-05, No Iterations 2
DILUPBiCG:  Solving for Uz, Initial residual = 0.1611875117193563, Final residual = 2.062654277435475e-05, No Iterations 2
DILUPBiCG:  Solving for h, Initial residual = 0.06118806172376463, Final residual = 1.897247557973612e-05, No Iterations 3
GAMG:  Solving for p_rgh, Initial residual = 0.08158023238757676, Final residual = 0.00490345744327312, No Iterations 3
time step continuity errors : sum local = 0.01620339076503311, global = 3.264144462648869e-05, cumulative = 8.638929572237132e-05
ExecutionTime = 5.96 s  ClockTime = 6 s
Inflow      : -3.931947112678555e-10 [kg/s]
Outflow     : 3.800650906395135e-09 [kg/s]
EnergyInflow  : -0.0001186661638606387 [W]
EnergyOutflow : 0.001148373960407393 [W]
EnergyBalance : 0.001267040124268032 [W]
rho max/avg/min : 1.176411545499497 1.175828384664229 1.170422001483806
T   max/avg/min : 301.5014141217429 300.1381116502836 299.9999999999951
P   max/avg/min : 101324.9853040127 101321.2882616728 101313.6077684867
Prg max/avg/min : 101325.0020944689 101324.9988242966 101324.9451502844
U   max/avg/min : 0.0002944321317086142 3.071183570132347e-07 -7.790881723470168e-05
Prg max-min : 0.05694418445636984
 
Iteration Number = 6

DILUPBiCG:  Solving for Ux, Initial residual = 0.2683256303091706, Final residual = 2.117367072344525e-05, No Iterations 2
DILUPBiCG:  Solving for Uy, Initial residual = 0.2284745153430554, Final residual = 1.995234014048092e-05, No Iterations 2
DILUPBiCG:  Solving for Uz, Initial residual = 0.1332285975699895, Final residual = 1.751871836302912e-05, No Iterations 2
DILUPBiCG:  Solving for h, Initial residual = 0.05061458491651959, Final residual = 3.079676213890607e-05, No Iterations 3
GAMG:  Solving for p_rgh, Initial residual = 0.07205967966088399, Final residual = 0.006560048535271734, No Iterations 3
time step continuity errors : sum local = 0.02221181421140122, global = 4.310410250037487e-05, cumulative = 0.0001294933982227462
ExecutionTime = 6.92 s  ClockTime = 7 s
Inflow      : -5.699786692706278e-10 [kg/s]
Outflow     : 4.968132570621945e-09 [kg/s]
EnergyInflow  : -0.0001720195623858754 [W]
EnergyOutflow : 0.001501318706922257 [W]
EnergyBalance : 0.001673338269308133 [W]
rho max/avg/min : 1.176411545482005 1.175720802150467 1.169833098208333
T   max/avg/min : 301.6532030409766 300.1656573328501 300.0000000000055
P   max/avg/min : 101324.9853031964 101321.2884005466 101313.608219111
Prg max/avg/min : 101325.0029495024 101324.9986234424 101324.9384373768
U   max/avg/min : 0.0003381318183171095 3.97138688457622e-07 -9.077925805400383e-05
Prg max-min : 0.06451212559477426
 
Iteration Number = 7

DILUPBiCG:  Solving for Ux, Initial residual = 0.2612837961641121, Final residual = 2.768229512646322e-05, No Iterations 2
DILUPBiCG:  Solving for Uy, Initial residual = 0.1800777731537723, Final residual = 2.253651710544438e-05, No Iterations 2
DILUPBiCG:  Solving for Uz, Initial residual = 0.1189290317692855, Final residual = 1.627502590077473e-05, No Iterations 2
DILUPBiCG:  Solving for h, Initial residual = 0.04330589432205197, Final residual = 2.622773646986292e-06, No Iterations 4
GAMG:  Solving for p_rgh, Initial residual = 0.05130050978826135, Final residual = 0.004536785642418785, No Iterations 3
time step continuity errors : sum local = 0.01570809807981949, global = 5.46926431275005e-05, cumulative = 0.0001841860413502467
ExecutionTime = 7.89 s  ClockTime = 8 s
Inflow      : -7.547376452323986e-10 [kg/s]
Outflow     : 6.272295144572843e-09 [kg/s]
EnergyInflow  : -0.0002277798213311379 [W]
EnergyOutflow : 0.001895626281899292 [W]
EnergyBalance : 0.002123406103230429 [W]
rho max/avg/min : 1.176411545511505 1.175612507250787 1.16929819294776
T   max/avg/min : 301.7914311257188 300.1933954373877 300.0000000000484
P   max/avg/min : 101324.9853035803 101321.2885908241 101313.6090430413
Prg max/avg/min : 101325.0028839487 101324.998471695 101324.9341073208
U   max/avg/min : 0.0003777829221938618 4.985909531275396e-07 -0.0001138726474812316
Prg max-min : 0.06877662791521288
 
Iteration Number = 8

DILUPBiCG:  Solving for Ux, Initial residual = 0.1377672508796233, Final residual = 1.931892223556862e-05, No Iterations 2
DILUPBiCG:  Solving for Uy, Initial residual = 0.1328964770902625, Final residual = 2.010239282858571e-05, No Iterations 2
DILUPBiCG:  Solving for Uz, Initial residual = 0.1041787839195522, Final residual = 1.46330004866645e-05, No Iterations 2
DILUPBiCG:  Solving for h, Initial residual = 0.03793231727800905, Final residual = 2.436716273251308e-06, No Iterations 4
GAMG:  Solving for p_rgh, Initial residual = 0.04609465559751643, Final residual = 0.004081177290403045, No Iterations 3
time step continuity errors : sum local = 0.01422302637555961, global = 6.744363431913724e-05, cumulative = 0.0002516296756693839
ExecutionTime = 8.869999999999999 s  ClockTime = 9 s
Inflow      : -9.588928308992576e-10 [kg/s]
Outflow     : 7.706415750370895e-09 [kg/s]
EnergyInflow  : -0.0002893938563653963 [W]
EnergyOutflow : 0.002329273072137275 [W]
EnergyBalance : 0.002618666928502671 [W]
rho max/avg/min : 1.176411545540318 1.175503568614847 1.16879977562591
T   max/avg/min : 301.9202889243119 300.2213079737132 300.000000000145
P   max/avg/min : 101324.9853047952 101321.2887776348 101313.6099068892
Prg max/avg/min : 101325.0026986304 101324.9983144282 101324.9302832907
U   max/avg/min : 0.0004200923956599408 6.21661973204422e-07 -0.0001435540424410502
Prg max-min : 0.07241533971682657
 
Iteration Number = 9

DILUPBiCG:  Solving for Ux, Initial residual = 0.0869229264937825, Final residual = 1.571087633505802e-05, No Iterations 2
DILUPBiCG:  Solving for Uy, Initial residual = 0.09126978900053419, Final residual = 1.245260771716283e-05, No Iterations 2
DILUPBiCG:  Solving for Uz, Initial residual = 0.09416144248446255, Final residual = 1.325353437483115e-05, No Iterations 2
DILUPBiCG:  Solving for h, Initial residual = 0.0338141689844716, Final residual = 2.290214281005704e-06, No Iterations 4
GAMG:  Solving for p_rgh, Initial residual = 0.04757218783235844, Final residual = 0.004662155582193495, No Iterations 3
time step continuity errors : sum local = 0.01631278420591654, global = 8.166768996877575e-05, cumulative = 0.0003332973656381596
ExecutionTime = 9.84 s  ClockTime = 10 s
Inflow      : -1.20473745302469e-09 [kg/s]
Outflow     : 9.288109527173347e-09 [kg/s]
EnergyInflow  : -0.0003635897633228532 [W]
EnergyOutflow : 0.002807582066257155 [W]
EnergyBalance : 0.003171171829580008 [W]
rho max/avg/min : 1.176411545541605 1.175394002477251 1.168332634086206
T   max/avg/min : 302.0410707294432 300.2493902306606 300.0000000003926
P   max/avg/min : 101324.9853060289 101321.2889695319 101313.6105479815
Prg max/avg/min : 101325.0031041194 101324.99816022 101324.9260051513
U   max/avg/min : 0.0004587548679004554 7.711206888263099e-07 -0.0001727050565679008
Prg max-min : 0.0770989681041101
 
Iteration Number = 10

DILUPBiCG:  Solving for Ux, Initial residual = 0.08025696480664332, Final residual = 1.564281303284364e-05, No Iterations 2
DILUPBiCG:  Solving for Uy, Initial residual = 0.07751750946252335, Final residual = 1.027028811852669e-05, No Iterations 2
DILUPBiCG:  Solving for Uz, Initial residual = 0.08736133622951366, Final residual = 1.237178026089018e-05, No Iterations 2
DILUPBiCG:  Solving for h, Initial residual = 0.03055392605940231, Final residual = 2.103622881765772e-06, No Iterations 4
GAMG:  Solving for p_rgh, Initial residual = 0.04423149102707501, Final residual = 0.003227597199061277, No Iterations 4
time step continuity errors : sum local = 0.01151187631571626, global = 9.72198200075904e-05, cumulative = 0.00043051718564575
ExecutionTime = 10.83 s  ClockTime = 11 s
Inflow      : -1.476271529054089e-09 [kg/s]
Outflow     : 1.101474781007968e-08 [kg/s]
EnergyInflow  : -0.000445538747468526 [W]
EnergyOutflow : 0.003329765903104149 [W]
EnergyBalance : 0.003775304650572675 [W]
rho max/avg/min : 1.176411545536364 1.175283834443262 1.167891824986844
T   max/avg/min : 302.1553977979585 300.2776353800257 300.0000000009766
P   max/avg/min : 101324.985306211 101321.2891503822 101313.6106131536
Prg max/avg/min : 101325.0038457721 101324.9979930435 101324.9217687189
U   max/avg/min : 0.0004959090811404977 9.561995829054143e-07 -0.0001989189757124787
Prg max-min : 0.08207705324457493
 
Iteration Number = 11

DILUPBiCG:  Solving for Ux, Initial residual = 0.09006499174322652, Final residual = 9.709470516182183e-06, No Iterations 2
DILUPBiCG:  Solving for Uy, Initial residual = 0.1043466087359022, Final residual = 1.384176553529522e-05, No Iterations 2
DILUPBiCG:  Solving for Uz, Initial residual = 0.08306673677343065, Final residual = 1.189519177395734e-05, No Iterations 2
DILUPBiCG:  Solving for h, Initial residual = 0.02789966618407896, Final residual = 2.107222728415281e-06, No Iterations 4
GAMG:  Solving for p_rgh, Initial residual = 0.03895004442518637, Final residual = 0.003560222919375927, No Iterations 3
time step continuity errors : sum local = 0.01268196947824658, global = 0.0001140514453303286, cumulative = 0.0005445686309760786
ExecutionTime = 11.8 s  ClockTime = 12 s
Inflow      : -1.789062509200193e-09 [kg/s]
Outflow     : 1.286452159711824e-08 [kg/s]
EnergyInflow  : -0.0005399390652766207 [W]
EnergyOutflow : 0.003889248066382804 [W]
EnergyBalance : 0.004429187131659425 [W]
rho max/avg/min : 1.17641154553577 1.175173106574714 1.167473491006079
T   max/avg/min : 302.2634504026145 300.3060323564713 300.0000000022548
P   max/avg/min : 101324.9853059875 101321.289366993 101313.6112647476
Prg max/avg/min : 101325.0041086733 101324.9978598286 101324.9184750975
U   max/avg/min : 0.0005341701605121763 1.180679749503525e-06 -0.0002178453915165141
Prg max-min : 0.08563357578532305
 
Iteration Number = 12

DILUPBiCG:  Solving for Ux, Initial residual = 0.0645266929191087, Final residual = 8.84441978402222e-06, No Iterations 2
DILUPBiCG:  Solving for Uy, Initial residual = 0.0658771103504522, Final residual = 9.938537233902529e-06, No Iterations 2
DILUPBiCG:  Solving for Uz, Initial residual = 0.0758278572530651, Final residual = 1.085846377394721e-05, No Iterations 2
DILUPBiCG:  Solving for h, Initial residual = 0.02570348719470795, Final residual = 1.886874594294825e-06, No Iterations 4
GAMG:  Solving for p_rgh, Initial residual = 0.0423402523736019, Final residual = 0.002961800766546862, No Iterations 4
time step continuity errors : sum local = 0.01072772622955005, global = 0.0001325319387358084, cumulative = 0.000677100569711887
ExecutionTime = 12.79 s  ClockTime = 13 s
Inflow      : -2.12553153536654e-09 [kg/s]
Outflow     : 1.49024675874453e-08 [kg/s]
EnergyInflow  : -0.000641485417373625 [W]
EnergyOutflow : 0.004505669430553781 [W]
EnergyBalance : 0.005147154847927406 [W]
rho max/avg/min : 1.176411545535324 1.17506183410476 1.167074433422613
T   max/avg/min : 302.366959158488 300.3345772355223 300.0000000048758
P   max/avg/min : 101324.9853070953 101321.2895720048 101313.6113776202
Prg max/avg/min : 101325.0048295575 101324.9977132372 101324.9146031967
U   max/avg/min : 0.0005695607909582232 1.440172680076475e-06 -0.0002360147539109754
Prg max-min : 0.09022636072768364
 
Iteration Number = 13

DILUPBiCG:  Solving for Ux, Initial residual = 0.07867849667191015, Final residual = 8.33416377181131e-06, No Iterations 2
DILUPBiCG:  Solving for Uy, Initial residual = 0.09080435008309114, Final residual = 1.36919577473193e-05, No Iterations 2
DILUPBiCG:  Solving for Uz, Initial residual = 0.0713887710373098, Final residual = 1.036937371031202e-05, No Iterations 2
DILUPBiCG:  Solving for h, Initial residual = 0.02384795244941032, Final residual = 1.892402557305539e-06, No Iterations 4
GAMG:  Solving for p_rgh, Initial residual = 0.03840616954802762, Final residual = 0.003583252978575559, No Iterations 3
time step continuity errors : sum local = 0.01306446826266903, global = 0.0001526164569657913, cumulative = 0.0008297170266776783
ExecutionTime = 13.75 s  ClockTime = 13 s
Inflow      : -2.487524026001138e-09 [kg/s]
Outflow     : 1.712097880077732e-08 [kg/s]
EnergyInflow  : -0.0007507347510471515 [W]
EnergyOutflow : 0.005176737809350426 [W]
EnergyBalance : 0.005927472560397578 [W]
rho max/avg/min : 1.176411545534932 1.174950063826774 1.166692238290852
T   max/avg/min : 302.4659908522278 300.3632577567824 300.0000000099503
P   max/avg/min : 101324.9853079528 101321.2898053684 101313.6122192255
Prg max/avg/min : 101325.0053084898 101324.9975934061 101324.9117609992
U   max/avg/min : 0.0006025171015227354 1.737282955255949e-06 -0.0002691456878594071
Prg max-min : 0.09354749057092704
 
Iteration Number = 14

DILUPBiCG:  Solving for Ux, Initial residual = 0.0637007232503872, Final residual = 1.370142177224862e-05, No Iterations 2
DILUPBiCG:  Solving for Uy, Initial residual = 0.06748029996020437, Final residual = 9.755521700246912e-06, No Iterations 2
DILUPBiCG:  Solving for Uz, Initial residual = 0.06558113181648866, Final residual = 9.556445103130112e-06, No Iterations 2
DILUPBiCG:  Solving for h, Initial residual = 0.02226372780952664, Final residual = 1.74064651032434e-06, No Iterations 4
GAMG:  Solving for p_rgh, Initial residual = 0.03954591214355373, Final residual = 0.002876574613271268, No Iterations 4
time step continuity errors : sum local = 0.01070505979267114, global = 0.0001742673758220524, cumulative = 0.001003984402499731
ExecutionTime = 14.74 s  ClockTime = 14 s
Inflow      : -2.880962658928892e-09 [kg/s]
Outflow     : 1.950929851844023e-08 [kg/s]
EnergyInflow  : -0.0008694745304647518 [W]
EnergyOutflow : 0.005899222085833843 [W]
EnergyBalance : 0.006768696616298595 [W]
rho max/avg/min : 1.17641154550753 1.174837810882449 1.166323641243788
T   max/avg/min : 302.5619957273713 300.3920700723119 300.0000000192877
P   max/avg/min : 101324.9853083224 101321.2900302441 101313.6127733671
Prg max/avg/min : 101325.0059724636 101324.9974635139 101324.9086466676
U   max/avg/min : 0.0006386851877820064 2.067532103801331e-06 -0.0002993439581516636
Prg max-min : 0.0973257959849434
 
Iteration Number = 15

DILUPBiCG:  Solving for Ux, Initial residual = 0.06972481719984767, Final residual = 9.816017274842397e-06, No Iterations 2
DILUPBiCG:  Solving for Uy, Initial residual = 0.08593017559796254, Final residual = 1.675434631959332e-05, No Iterations 2
DILUPBiCG:  Solving for Uz, Initial residual = 0.06213772189737003, Final residual = 9.136893396798462e-06, No Iterations 2
DILUPBiCG:  Solving for h, Initial residual = 0.02088826200085433, Final residual = 1.756356338663366e-06, No Iterations 4
GAMG:  Solving for p_rgh, Initial residual = 0.0367936644589405, Final residual = 0.003314462333071796, No Iterations 3
time step continuity errors : sum local = 0.01236889532827543, global = 0.0001976156885586683, cumulative = 0.001201600091058399
ExecutionTime = 15.69 s  ClockTime = 15 s
Inflow      : -3.314390993958806e-09 [kg/s]
Outflow     : 2.207571348605174e-08 [kg/s]
EnergyInflow  : -0.001000283201976786 [W]
EnergyOutflow : 0.006675639055983932 [W]
EnergyBalance : 0.007675922257960719 [W]
rho max/avg/min : 1.176411545453111 1.17472511942141 1.165971240781128
T   max/avg/min : 302.6538035076409 300.4210026922606 300.0000000356981
P   max/avg/min : 101324.9853094571 101321.2902860932 101313.6137115545
Prg max/avg/min : 101325.0064758582 101324.9973631781 101324.9063174704
U   max/avg/min : 0.0006734521500064046 2.432107434759986e-06 -0.0003259449655676491
Prg max-min : 0.1001583877659868
 
Iteration Number = 16

DILUPBiCG:  Solving for Ux, Initial residual = 0.06107444292822536, Final residual = 1.461698782548787e-05, No Iterations 2
DILUPBiCG:  Solving for Uy, Initial residual = 0.05589466025169458, Final residual = 7.127768721475675e-06, No Iterations 2
DILUPBiCG:  Solving for Uz, Initial residual = 0.05774139114426928, Final residual = 8.52589974817057e-06, No Iterations 2
DILUPBiCG:  Solving for h, Initial residual = 0.01968904094279203, Final residual = 1.664176713342039e-06, No Iterations 4
GAMG:  Solving for p_rgh, Initial residual = 0.0378599370244487, Final residual = 0.002570184101995289, No Iterations 4
time step continuity errors : sum local = 0.009788836613985148, global = 0.0002226711343868992, cumulative = 0.001424271225445298
ExecutionTime = 16.69 s  ClockTime = 16 s
Inflow      : -3.769438846278876e-09 [kg/s]
Outflow     : 2.483984520401315e-08 [kg/s]
EnergyInflow  : -0.001137616643806992 [W]
EnergyOutflow : 0.007511929224222255 [W]
EnergyBalance : 0.008649545868029247 [W]
rho max/avg/min : 1.176411545350515 1.174612009862515 1.165626262410577
T   max/avg/min : 302.7430300386777 300.4500504822042 300.0000000633672
P   max/avg/min : 101324.9853109131 101321.2905343755 101313.6140574928
Prg max/avg/min : 101325.0071917002 101324.9972538925 101324.9036221643
U   max/avg/min : 0.0007075305293815801 2.82835929086228e-06 -0.0003492043463495014
Prg max-min : 0.1035695358732482
 
Iteration Number = 17

DILUPBiCG:  Solving for Ux, Initial residual = 0.06194069521216615, Final residual = 1.18706165385797e-05, No Iterations 2
DILUPBiCG:  Solving for Uy, Initial residual = 0.07800921651395223, Final residual = 1.656543880785728e-05, No Iterations 2
DILUPBiCG:  Solving for Uz, Initial residual = 0.05509299500239344, Final residual = 8.187008306696317e-06, No Iterations 2
DILUPBiCG:  Solving for h, Initial residual = 0.01862651555291136, Final residual = 1.695218158407851e-06, No Iterations 4
GAMG:  Solving for p_rgh, Initial residual = 0.0354651688253262, Final residual = 0.00309439836403602, No Iterations 3
time step continuity errors : sum local = 0.01179002239851269, global = 0.0002495833221646355, cumulative = 0.001673854547609934
ExecutionTime = 17.67 s  ClockTime = 17 s
Inflow      : -4.249391008984966e-09 [kg/s]
Outflow     : 2.781763095903259e-08 [kg/s]
EnergyInflow  : -0.001282466206511703 [W]
EnergyOutflow : 0.008412929493141709 [W]
EnergyBalance : 0.009695395699653412 [W]
rho max/avg/min : 1.17641154518515 1.174498519452106 1.165297289014729
T   max/avg/min : 302.8288803596641 300.47920375013 300.0000001083306
P   max/avg/min : 101324.9853121175 101321.290806578 101313.6147581514
Prg max/avg/min : 101325.0076825281 101324.997167306 101324.9013614071
U   max/avg/min : 0.0007414298706127101 3.261488771550008e-06 -0.0003680315102742346
Prg max-min : 0.1063211210712325
 
Iteration Number = 18

DILUPBiCG:  Solving for Ux, Initial residual = 0.05470004819543398, Final residual = 1.485407561493282e-05, No Iterations 2
DILUPBiCG:  Solving for Uy, Initial residual = 0.05251594342326109, Final residual = 6.68146818537993e-06, No Iterations 2
DILUPBiCG:  Solving for Uz, Initial residual = 0.05171026058167658, Final residual = 7.692788572205514e-06, No Iterations 2
DILUPBiCG:  Solving for h, Initial residual = 0.01768432518086438, Final residual = 1.609547096686568e-06, No Iterations 4
GAMG:  Solving for p_rgh, Initial residual = 0.03663533908721003, Final residual = 0.002450034813372941, No Iterations 4
time step continuity errors : sum local = 0.009488844007710733, global = 0.000278193578699849, cumulative = 0.001952048126309783
ExecutionTime = 18.65 s  ClockTime = 18 s
Inflow      : -4.73741676135743e-09 [kg/s]
Outflow     : 3.100551478614825e-08 [kg/s]
EnergyInflow  : -0.001429752378577729 [W]
EnergyOutflow : 0.009377587264026915 [W]
EnergyBalance : 0.01080733964260464 [W]
rho max/avg/min : 1.176411544925626 1.174384669326253 1.164972773956945
T   max/avg/min : 302.9132825193007 300.5084572000142 300.0000001790012
P   max/avg/min : 101324.985314013 101321.291068078 101313.6150961509
Prg max/avg/min : 101325.0084629385 101324.9970688193 101324.8983774411
U   max/avg/min : 0.000779336000340756 3.733797885705223e-06 -0.000382512743635637
Prg max-min : 0.1100854973628884
 
Iteration Number = 19

DILUPBiCG:  Solving for Ux, Initial residual = 0.05942373121534535, Final residual = 1.282410207980804e-05, No Iterations 2
DILUPBiCG:  Solving for Uy, Initial residual = 0.07324083083801904, Final residual = 1.66282376866978e-05, No Iterations 2
DILUPBiCG:  Solving for Uz, Initial residual = 0.04963091012661289, Final residual = 7.411040818087645e-06, No Iterations 2
DILUPBiCG:  Solving for h, Initial residual = 0.01683706964212549, Final residual = 1.625105921310725e-06, No Iterations 4
GAMG:  Solving for p_rgh, Initial residual = 0.03463817114243626, Final residual = 0.002908591529379758, No Iterations 3
time step continuity errors : sum local = 0.01135323896229083, global = 0.0003088486865840464, cumulative = 0.002260896812893829
ExecutionTime = 19.62 s  ClockTime = 19 s
Inflow      : -5.245614925012579e-09 [kg/s]
Outflow     : 3.443595326466669e-08 [kg/s]
EnergyInflow  : -0.001583126584368878 [W]
EnergyOutflow : 0.01041573055950199 [W]
EnergyBalance : 0.01199885714387086 [W]
rho max/avg/min : 1.176411544525057 1.174270494836218 1.164662199408411
T   max/avg/min : 302.9941021663407 300.5378016552224 300.000000286727
P   max/avg/min : 101324.9853145907 101321.2913477065 101313.6158985378
Prg max/avg/min : 101325.0090159589 101324.9969874224 101324.8963232407
U   max/avg/min : 0.0008171514721483888 4.253836437844985e-06 -0.0003921576095015862
Prg max-min : 0.1126927182631334
 
Iteration Number = 20

DILUPBiCG:  Solving for Ux, Initial residual = 0.054428275382029, Final residual = 1.494570360353368e-05, No Iterations 2
DILUPBiCG:  Solving for Uy, Initial residual = 0.05034070901009949, Final residual = 6.292802291288458e-06, No Iterations 2
DILUPBiCG:  Solving for Uz, Initial residual = 0.04686045882509687, Final residual = 7.002201983897711e-06, No Iterations 2
DILUPBiCG:  Solving for h, Initial residual = 0.01607628770778972, Final residual = 1.538783450299889e-06, No Iterations 4
GAMG:  Solving for p_rgh, Initial residual = 0.03570249425399384, Final residual = 0.003468494731500694, No Iterations 3
time step continuity errors : sum local = 0.01377876208158257, global = 0.0003416196405421681, cumulative = 0.002602516453435997
ExecutionTime = 20.59 s  ClockTime = 20 s
Inflow      : -5.787951250142461e-09 [kg/s]
Outflow     : 3.810410220504332e-08 [kg/s]
EnergyInflow  : -0.0017468036872931 [W]
EnergyOutflow : 0.0115259115796071 [W]
EnergyBalance : 0.0132727152669002 [W]
rho max/avg/min : 1.176411543910901 1.174156012886025 1.164354567532768
T   max/avg/min : 303.0746027772802 300.5672329215675 300.0000004464301
P   max/avg/min : 101324.9853154813 101321.291629161 101313.6165428104
Prg max/avg/min : 101325.0096763295 101324.9969068017 101324.8939356705
U   max/avg/min : 0.000855288745245341 4.814075996654843e-06 -0.0004058845592508584
Prg max-min : 0.1157406589773018
 
Iteration Number = 21

DILUPBiCG:  Solving for Ux, Initial residual = 0.05325522068646703, Final residual = 1.506933067703268e-05, No Iterations 2
DILUPBiCG:  Solving for Uy, Initial residual = 0.05120449547789981, Final residual = 9.185287492394956e-06, No Iterations 2
DILUPBiCG:  Solving for Uz, Initial residual = 0.044747277989364, Final residual = 6.688210328571946e-06, No Iterations 2
DILUPBiCG:  Solving for h, Initial residual = 0.01538618254239472, Final residual = 1.472091462157917e-06, No Iterations 4
GAMG:  Solving for p_rgh, Initial residual = 0.03504655103511593, Final residual = 0.002471624544803913, No Iterations 4
time step continuity errors : sum local = 0.009978587322822769, global = 0.000376077238201137, cumulative = 0.002978593691637134
ExecutionTime = 21.62 s  ClockTime = 21 s
Inflow      : -6.309269069929154e-09 [kg/s]
Outflow     : 4.200997339575447e-08 [kg/s]
EnergyInflow  : -0.001904137405304767 [W]
EnergyOutflow : 0.0127081507631265 [W]
EnergyBalance : 0.01461228816843127 [W]
rho max/avg/min : 1.17641154301593 1.174041241937794 1.164057826172804
T   max/avg/min : 303.1523275891602 300.5967462350319 300.0000006772956
P   max/avg/min : 101324.9853154015 101321.2918912076 101313.6168071329
Prg max/avg/min : 101325.0106550228 101324.9968058096 101324.8912666809
U   max/avg/min : 0.0008953235489523973 5.437648018922155e-06 -0.0004512281981446885
Prg max-min : 0.1193883419473423
 
Iteration Number = 22

DILUPBiCG:  Solving for Ux, Initial residual = 0.05502125960618493, Final residual = 1.026065247674123e-05, No Iterations 2
DILUPBiCG:  Solving for Uy, Initial residual = 0.08383949353768559, Final residual = 1.814042202625085e-05, No Iterations 2
DILUPBiCG:  Solving for Uz, Initial residual = 0.04359459248951039, Final residual = 6.541283262488575e-06, No Iterations 2
DILUPBiCG:  Solving for h, Initial residual = 0.01475341075643653, Final residual = 1.491570921814094e-06, No Iterations 4
GAMG:  Solving for p_rgh, Initial residual = 0.03300947029182703, Final residual = 0.002525151189179745, No Iterations 3
time step continuity errors : sum local = 0.01026213198573682, global = 0.0004135232114239742, cumulative = 0.003392116903061108
ExecutionTime = 22.71 s  ClockTime = 22 s
Inflow      : -6.870461983946489e-09 [kg/s]
Outflow     : 4.625992265078539e-08 [kg/s]
EnergyInflow  : -0.002073505426755242 [W]
EnergyOutflow : 0.01399461534174649 [W]
EnergyBalance : 0.01606812076850173 [W]
rho max/avg/min : 1.176411541735482 1.173926230539259 1.163766628217134
T   max/avg/min : 303.2280368434552 300.6263291110178 300.0000010034588
P   max/avg/min : 101324.9853156999 101321.2921776011 101313.6176973204
Prg max/avg/min : 101325.0111758977 101324.9967283982 101324.8894644563
U   max/avg/min : 0.0009389915237939153 6.139208250756364e-06 -0.0004902760530003261
Prg max-min : 0.121711441417574
 
Iteration Number = 23

DILUPBiCG:  Solving for Ux, Initial residual = 0.05058132308933396, Final residual = 1.314010045701558e-05, No Iterations 2
DILUPBiCG:  Solving for Uy, Initial residual = 0.0455576639235873, Final residual = 6.174677280037982e-06, No Iterations 2
DILUPBiCG:  Solving for Uz, Initial residual = 0.04154914500131335, Final residual = 6.23925205836739e-06, No Iterations 2
DILUPBiCG:  Solving for h, Initial residual = 0.01417733126646702, Final residual = 1.508193170173852e-06, No Iterations 4
GAMG:  Solving for p_rgh, Initial residual = 0.03368704333288101, Final residual = 0.003121147657191281, No Iterations 3
time step continuity errors : sum local = 0.01293430931149947, global = 0.0004535081153445161, cumulative = 0.003845625018405624
ExecutionTime = 23.9 s  ClockTime = 24 s
Inflow      : -7.466204857738356e-09 [kg/s]
Outflow     : 5.080152942552198e-08 [kg/s]
EnergyInflow  : -0.002253300626065691 [W]
EnergyOutflow : 0.01536948644513816 [W]
EnergyBalance : 0.01762278707120385 [W]
rho max/avg/min : 1.176411539964364 1.173810981548564 1.163480684971362
T   max/avg/min : 303.3027762900244 300.6559810211345 300.0000014548136
P   max/avg/min : 101324.9853179323 101321.2924730288 101313.6184249428
Prg max/avg/min : 101325.0118186372 101324.9966592154 101324.8871649994
U   max/avg/min : 0.0009831484050589114 6.901765369798237e-06 -0.0005230959252324314
Prg max-min : 0.1246536377439043
 
Iteration Number = 24

DILUPBiCG:  Solving for Ux, Initial residual = 0.04833764051995029, Final residual = 1.401595801684929e-05, No Iterations 2
DILUPBiCG:  Solving for Uy, Initial residual = 0.04510937798797821, Final residual = 7.959531299822315e-06, No Iterations 2
DILUPBiCG:  Solving for Uz, Initial residual = 0.039965534038353, Final residual = 6.01167620191655e-06, No Iterations 2
DILUPBiCG:  Solving for h, Initial residual = 0.01364851175982679, Final residual = 1.401866353555832e-06, No Iterations 4
GAMG:  Solving for p_rgh, Initial residual = 0.03369740803442035, Final residual = 0.003161942983160934, No Iterations 3
time step continuity errors : sum local = 0.01340448049824747, global = 0.0004956449955191191, cumulative = 0.004341270013924744
ExecutionTime = 25.26 s  ClockTime = 25 s
Inflow      : -8.070232068426415e-09 [kg/s]
Outflow     : 5.561134257287239e-08 [kg/s]
EnergyInflow  : -0.002435596038251416 [W]
EnergyOutflow : 0.0168257062290815 [W]
EnergyBalance : 0.01926130226733291 [W]
rho max/avg/min : 1.176411537581729 1.173695513971262 1.16319650217016
T   max/avg/min : 303.3758722985123 300.6856970880845 300.0000020676461
P   max/avg/min : 101324.9853222266 101321.2927664801 101313.6190661992
Prg max/avg/min : 101325.0126979437 101324.996587305 101324.8848690602
U   max/avg/min : 0.001027621846909374 7.729561592614311e-06 -0.0005501227874839418
Prg max-min : 0.1278288835455896
 
Iteration Number = 25

DILUPBiCG:  Solving for Ux, Initial residual = 0.04053014683997817, Final residual = 1.211178101509821e-05, No Iterations 2
DILUPBiCG:  Solving for Uy, Initial residual = 0.05337962432900491, Final residual = 1.241113180609253e-05, No Iterations 2
DILUPBiCG:  Solving for Uz, Initial residual = 0.03863382542723681, Final residual = 5.819152868761831e-06, No Iterations 2
DILUPBiCG:  Solving for h, Initial residual = 0.01315907695046127, Final residual = 1.378764702169194e-06, No Iterations 4
GAMG:  Solving for p_rgh, Initial residual = 0.03134919416455917, Final residual = 0.002974307716297464, No Iterations 3
time step continuity errors : sum local = 0.01281556486492179, global = 0.0005393644530414158, cumulative = 0.004880634466966159
ExecutionTime = 26.5 s  ClockTime = 26 s
Inflow      : -8.654255137640374e-09 [kg/s]
Outflow     : 6.064449292950834e-08 [kg/s]
EnergyInflow  : -0.002611854200540278 [W]
EnergyOutflow : 0.01834974687723777 [W]
EnergyBalance : 0.02096160107777805 [W]
rho max/avg/min : 1.176411534408687 1.173579851832903 1.162925103115112
T   max/avg/min : 303.4475152698137 300.7154711519895 300.0000028854294
P   max/avg/min : 101324.9853244479 101321.2930581457 101313.6196926033
Prg max/avg/min : 101325.0134485672 101324.9965129489 101324.8826529502
U   max/avg/min : 0.001076452678096403 8.630039436973188e-06 -0.0005724797884547059
Prg max-min : 0.1307956170348916
 
Iteration Number = 26

DILUPBiCG:  Solving for Ux, Initial residual = 0.03129912674438847, Final residual = 9.819815258179095e-06, No Iterations 2
DILUPBiCG:  Solving for Uy, Initial residual = 0.0485570092755989, Final residual = 1.259157030602519e-05, No Iterations 2
DILUPBiCG:  Solving for Uz, Initial residual = 0.03732967605198233, Final residual = 5.623626970741745e-06, No Iterations 2
DILUPBiCG:  Solving for h, Initial residual = 0.01270529621987662, Final residual = 1.361158386181569e-06, No Iterations 4
GAMG:  Solving for p_rgh, Initial residual = 0.03113486149248319, Final residual = 0.00279279061941006, No Iterations 3
time step continuity errors : sum local = 0.01221142529837684, global = 0.0005847080780755989, cumulative = 0.005465342545041758
ExecutionTime = 27.67 s  ClockTime = 27 s
Inflow      : -9.209979991467157e-09 [kg/s]
Outflow     : 6.591461816642449e-08 [kg/s]
EnergyInflow  : -0.002779571961425303 [W]
EnergyOutflow : 0.01994574668977494 [W]
EnergyBalance : 0.02272531865120024 [W]
rho max/avg/min : 1.176411530234937 1.17346401839512 1.162654806060497
T   max/avg/min : 303.5179578693636 300.7452973017103 300.000003959368
P   max/avg/min : 101324.9853258856 101321.2933546011 101313.6202133883
Prg max/avg/min : 101325.0141739884 101324.9964428077 101324.8805798005
U   max/avg/min : 0.00112579519989298 9.607367564974137e-06 -0.0005884169886170785
Prg max-min : 0.1335941878933227
 
Iteration Number = 27

DILUPBiCG:  Solving for Ux, Initial residual = 0.0346197682670901, Final residual = 1.037525025630721e-05, No Iterations 2
DILUPBiCG:  Solving for Uy, Initial residual = 0.04099090796818643, Final residual = 1.148235816676701e-05, No Iterations 2
DILUPBiCG:  Solving for Uz, Initial residual = 0.03608658325823653, Final residual = 5.444812843043502e-06, No Iterations 2
DILUPBiCG:  Solving for h, Initial residual = 0.01228348103779178, Final residual = 1.3546786144087e-06, No Iterations 4
GAMG:  Solving for p_rgh, Initial residual = 0.0302431992571703, Final residual = 0.002660100951185192, No Iterations 3
time step continuity errors : sum local = 0.01183656458334344, global = 0.0006314685232420881, cumulative = 0.006096811068283846
ExecutionTime = 28.98 s  ClockTime = 29 s
Inflow      : -9.721284350695065e-09 [kg/s]
Outflow     : 7.141120010900822e-08 [kg/s]
EnergyInflow  : -0.002933883617040404 [W]
EnergyOutflow : 0.02161055318962351 [W]
EnergyBalance : 0.02454443680666392 [W]
rho max/avg/min : 1.176411524812527 1.173348030612906 1.162386948576666
T   max/avg/min : 303.5876979285576 300.7751712545319 300.0000053488619
P   max/avg/min : 101324.9853264283 101321.2936574587 101313.6207604818
Prg max/avg/min : 101325.0148505476 101324.9963785336 101324.8785506452
U   max/avg/min : 0.00117563057283521 1.06634164761835e-05 -0.0005991525368338562
Prg max-min : 0.1362999024277087
 
Iteration Number = 28

DILUPBiCG:  Solving for Ux, Initial residual = 0.03677865701285062, Final residual = 1.115821774663314e-05, No Iterations 2
DILUPBiCG:  Solving for Uy, Initial residual = 0.04137624547005895, Final residual = 1.113150158679742e-05, No Iterations 2
DILUPBiCG:  Solving for Uz, Initial residual = 0.03493843981941269, Final residual = 5.290601084206941e-06, No Iterations 2
DILUPBiCG:  Solving for h, Initial residual = 0.01189059297345147, Final residual = 1.36590873568312e-06, No Iterations 4
GAMG:  Solving for p_rgh, Initial residual = 0.02959732347672196, Final residual = 0.002929303115013386, No Iterations 3
time step continuity errors : sum local = 0.01324713376507618, global = -0.0001780593509634254, cumulative = 0.005918751717320421
ExecutionTime = 30.12 s  ClockTime = 30 s
Inflow      : 9.998499248481433e-08 [kg/s]
Outflow     : 7.710752988246681e-08 [kg/s]
EnergyInflow  : 0.03017547073199095 [W]
EnergyOutflow : 0.02333611223498008 [W]
EnergyBalance : -0.006839358497010863 [W]
rho max/avg/min : 1.176411517857363 1.173231904708372 1.162127883556705
T   max/avg/min : 303.6557546008848 300.8050889059377 300.0000071228008
P   max/avg/min : 101324.9834542989 101321.2904717504 101313.6175241087
Prg max/avg/min : 101325.0116568232 101324.992825224 101324.8727962075
U   max/avg/min : 0.001260691920208045 1.434440671035446e-05 -0.0006066535862390608
Prg max-min : 0.1388606156979222
 
Iteration Number = 29

DILUPBiCG:  Solving for Ux, Initial residual = 0.03644935041191649, Final residual = 1.166848253832448e-05, No Iterations 2
DILUPBiCG:  Solving for Uy, Initial residual = 0.04117763483355816, Final residual = 1.038834710687628e-05, No Iterations 2
DILUPBiCG:  Solving for Uz, Initial residual = 0.03793637873815919, Final residual = 6.509136054874074e-06, No Iterations 2
DILUPBiCG:  Solving for h, Initial residual = 0.01152369724089921, Final residual = 1.378040123518884e-06, No Iterations 4
GAMG:  Solving for p_rgh, Initial residual = 0.02918364935964308, Final residual = 0.002497049716471706, No Iterations 3
time step continuity errors : sum local = 0.01151172249141211, global = 0.0004823033746944257, cumulative = 0.006401055092014846
ExecutionTime = 31.34 s  ClockTime = 31 s
Inflow      : 2.101081127289022e-08 [kg/s]
Outflow     : 8.297822470996597e-08 [kg/s]
EnergyInflow  : 0.006341062842148384 [W]
EnergyOutflow : 0.02511476477049956 [W]
EnergyBalance : 0.01877370192835118 [W]
rho max/avg/min : 1.176411483964056 1.173115622511345 1.161868225199978
T   max/avg/min : 303.7235424594525 300.8350445605542 300.0000093374163
P   max/avg/min : 101324.9866198673 101321.2913295298 101313.6169451789
Prg max/avg/min : 101325.0115175613 101324.9933148119 101324.8697001631
U   max/avg/min : 0.001893213214388849 2.102199202340508e-05 -0.0006306213252160248
Prg max-min : 0.1418173982237931
 
Iteration Number = 30

DILUPBiCG:  Solving for Ux, Initial residual = 0.03518026084828039, Final residual = 1.044649633269083e-05, No Iterations 2
DILUPBiCG:  Solving for Uy, Initial residual = 0.05229588032458602, Final residual = 1.387526488147468e-05, No Iterations 2
DILUPBiCG:  Solving for Uz, Initial residual = 0.03599854901040511, Final residual = 5.757769683441894e-06, No Iterations 2
DILUPBiCG:  Solving for h, Initial residual = 0.01117886446808773, Final residual = 1.414222483455517e-06, No Iterations 4
GAMG:  Solving for p_rgh, Initial residual = 0.02898608853152992, Final residual = 0.00252815819203634, No Iterations 3
time step continuity errors : sum local = 0.01188953577770018, global = -0.0002674796498384256, cumulative = 0.006133575442176421
ExecutionTime = 32.59 s  ClockTime = 32 s
Inflow      : 1.233864241018699e-07 [kg/s]
Outflow     : 8.902004203349836e-08 [kg/s]
EnergyInflow  : 0.03723802279407209 [W]
EnergyOutflow : 0.02694556097403651 [W]
EnergyBalance : -0.01029246182003558 [W]
rho max/avg/min : 1.176411509583875 1.172999279549674 1.16161473359283
T   max/avg/min : 303.7898705807829 300.8650361322589 300.0000121105413
P   max/avg/min : 101324.984370793 101321.2882184094 101313.6133362124
Prg max/avg/min : 101325.0078382467 101324.9898352867 101324.8636458243
U   max/avg/min : 0.001682276430506988 2.908679844930846e-05 -0.0006734598416105205
Prg max-min : 0.1441924224491231
 
Iteration Number = 31

DILUPBiCG:  Solving for Ux, Initial residual = 0.03669508906906861, Final residual = 1.147216982273863e-05, No Iterations 2
DILUPBiCG:  Solving for Uy, Initial residual = 0.03961889506870066, Final residual = 8.503047536941085e-06, No Iterations 2
DILUPBiCG:  Solving for Uz, Initial residual = 0.03480998140642953, Final residual = 5.982600354620588e-06, No Iterations 2
DILUPBiCG:  Solving for h, Initial residual = 0.01085516046074597, Final residual = 9.846154754872586e-06, No Iterations 3
GAMG:  Solving for p_rgh, Initial residual = 0.02867600908352136, Final residual = 0.002261338225271193, No Iterations 3
time step continuity errors : sum local = 0.01087022852995501, global = 0.0004777678685856331, cumulative = 0.006611343310762054
ExecutionTime = 33.77 s  ClockTime = 34 s
Inflow      : 3.379124070756893e-08 [kg/s]
Outflow     : 9.517592220263181e-08 [kg/s]
EnergyInflow  : 0.01019819644551659 [W]
EnergyOutflow : 0.02881126951236562 [W]
EnergyBalance : 0.01861307306684902 [W]
rho max/avg/min : 1.176411472003419 1.172882918644328 1.161361619228317
T   max/avg/min : 303.8559223227797 300.8950290129936 300.0000155285566
P   max/avg/min : 101324.9866718582 101321.2890271696 101313.6126988426
Prg max/avg/min : 101325.0074036279 101324.9902755061 101324.8605832328
U   max/avg/min : 0.001646805359970462 3.999878458546196e-05 -0.0007039859439151148
Prg max-min : 0.1468203950789757
 
Iteration Number = 32

DILUPBiCG:  Solving for Ux, Initial residual = 0.03655405262794954, Final residual = 1.092131117173224e-05, No Iterations 2
DILUPBiCG:  Solving for Uy, Initial residual = 0.04353591684106685, Final residual = 1.209439209135353e-05, No Iterations 2
DILUPBiCG:  Solving for Uz, Initial residual = 0.03516660154696179, Final residual = 5.694686646029965e-06, No Iterations 2
DILUPBiCG:  Solving for h, Initial residual = 0.01055061731662506, Final residual = 1.594041173380456e-06, No Iterations 4
GAMG:  Solving for p_rgh, Initial residual = 0.02807345732618593, Final residual = 0.002173662344432837, No Iterations 3
time step continuity errors : sum local = 0.01067555233757049, global = 0.0005141600041994401, cumulative = 0.007125503314961494
ExecutionTime = 34.96 s  ClockTime = 35 s
Inflow      : 3.541867477076737e-08 [kg/s]
Outflow     : 1.014790990280967e-07 [kg/s]
EnergyInflow  : 0.01068935604581768 [W]
EnergyOutflow : 0.03072192924313083 [W]
EnergyBalance : 0.02003257319731315 [W]
rho max/avg/min : 1.176411478688186 1.172766398408432 1.161114340531076
T   max/avg/min : 303.9223490686455 300.9250826538527 300.0000196914577
P   max/avg/min : 101324.9856983401 101321.2862451681 101313.6087253668
Prg max/avg/min : 101325.0035552319 101324.9871244631 101324.8543198467
U   max/avg/min : 0.001917208942503585 5.195555042603387e-05 -0.0007245374510483998
Prg max-min : 0.1492353852518136
 
Iteration Number = 33

DILUPBiCG:  Solving for Ux, Initial residual = 0.03528720585343879, Final residual = 1.087355386635554e-05, No Iterations 2
DILUPBiCG:  Solving for Uy, Initial residual = 0.03982563332360985, Final residual = 9.402259240476444e-06, No Iterations 2
DILUPBiCG:  Solving for Uz, Initial residual = 0.03298644701598417, Final residual = 5.432934530390391e-06, No Iterations 2
DILUPBiCG:  Solving for h, Initial residual = 0.01026325476065531, Final residual = 6.686535800658315e-06, No Iterations 3
GAMG:  Solving for p_rgh, Initial residual = 0.0271727682280117, Final residual = 0.002417332344472392, No Iterations 3
time step continuity errors : sum local = 0.01208707551652901, global = -0.0002750352002638979, cumulative = 0.006850468114697595
ExecutionTime = 36.11 s  ClockTime = 36 s
Inflow      : 1.432029311197829e-07 [kg/s]
Outflow     : 1.078657950788766e-07 [kg/s]
EnergyInflow  : 0.04321864461216201 [W]
EnergyOutflow : 0.03265831664764736 [W]
EnergyBalance : -0.01056032796451465 [W]
rho max/avg/min : 1.176411450744886 1.172649863199817 1.160866941733754
T   max/avg/min : 303.987440770525 300.9551379967585 300.0000247106466
P   max/avg/min : 101324.9835720478 101321.2830790829 101313.6047111976
Prg max/avg/min : 101324.9996383612 101324.9835892328 101324.8481881196
U   max/avg/min : 0.002027655056422307 6.933716824809135e-05 -0.0007394045216779396
Prg max-min : 0.1514502415375318
 
Iteration Number = 34

DILUPBiCG:  Solving for Ux, Initial residual = 0.0375099013691725, Final residual = 1.198214923407992e-05, No Iterations 2
DILUPBiCG:  Solving for Uy, Initial residual = 0.03816040849907872, Final residual = 9.379978135145147e-06, No Iterations 2
DILUPBiCG:  Solving for Uz, Initial residual = 0.03437632715879206, Final residual = 5.635104769510795e-06, No Iterations 2
DILUPBiCG:  Solving for h, Initial residual = 0.00999171233712, Final residual = 6.688439103495487e-06, No Iterations 3
GAMG:  Solving for p_rgh, Initial residual = 0.02732205055109995, Final residual = 0.002141783161365342, No Iterations 3
time step continuity errors : sum local = 0.01092588836773325, global = 0.0004127554844302491, cumulative = 0.007263223599127845
ExecutionTime = 37.22 s  ClockTime = 37 s
Inflow      : 6.128026038700266e-08 [kg/s]
Outflow     : 1.143120057450456e-07 [kg/s]
EnergyInflow  : 0.0184943825847284 [W]
EnergyOutflow : 0.03461316739410576 [W]
EnergyBalance : 0.01611878480937736 [W]
rho max/avg/min : 1.176411400774991 1.172533271264441 1.160625294191005
T   max/avg/min : 304.0490924612342 300.9852151870979 300.0000306604489
P   max/avg/min : 101324.9868768042 101321.2844078459 101313.6034676061
Prg max/avg/min : 101325.0023592825 101324.9845485959 101324.8445992088
U   max/avg/min : 0.002926135992445256 8.894802782358543e-05 -0.0007467225105556101
Prg max-min : 0.1577600737946341
 
Iteration Number = 35

DILUPBiCG:  Solving for Ux, Initial residual = 0.03442855545774947, Final residual = 1.034875655139923e-05, No Iterations 2
DILUPBiCG:  Solving for Uy, Initial residual = 0.0509798290857861, Final residual = 1.401865602066146e-05, No Iterations 2
DILUPBiCG:  Solving for Uz, Initial residual = 0.0338578588454215, Final residual = 5.660719234251959e-06, No Iterations 2
DILUPBiCG:  Solving for h, Initial residual = 0.009733810128027827, Final residual = 7.742858375630135e-06, No Iterations 3
GAMG:  Solving for p_rgh, Initial residual = 0.02637384059064898, Final residual = 0.002157250536895249, No Iterations 3
time step continuity errors : sum local = 0.01119120446646188, global = -0.0003263932414825359, cumulative = 0.006936830357645309
ExecutionTime = 38.33 s  ClockTime = 38 s
Inflow      : 1.627236011089322e-07 [kg/s]
Outflow     : 1.207878693697693e-07 [kg/s]
EnergyInflow  : 0.04910998281493814 [W]
EnergyOutflow : 0.03657747104307329 [W]
EnergyBalance : -0.01253251177186485 [W]
rho max/avg/min : 1.176411411097471 1.172416696984623 1.160383372708209
T   max/avg/min : 304.1129641400517 301.0153096691931 300.0000378416687
P   max/avg/min : 101324.9842901487 101321.2812438641 101313.5991666668
Prg max/avg/min : 101324.9996315178 101324.981015235 101324.8381425058
U   max/avg/min : 0.002593798257028986 0.0001090887397187583 -0.0007430992314295732
Prg max-min : 0.1614890119526535
 
Iteration Number = 36

DILUPBiCG:  Solving for Ux, Initial residual = 0.03906033910220252, Final residual = 1.210385683768321e-05, No Iterations 2
DILUPBiCG:  Solving for Uy, Initial residual = 0.0362734313495555, Final residual = 8.34295522877532e-06, No Iterations 2
DILUPBiCG:  Solving for Uz, Initial residual = 0.03179924109958842, Final residual = 5.218439985105714e-06, No Iterations 2
DILUPBiCG:  Solving for h, Initial residual = 0.009489356161426763, Final residual = 4.75932696595442e-06, No Iterations 3
GAMG:  Solving for p_rgh, Initial residual = 0.02623799515614196, Final residual = 0.001970234188970655, No Iterations 3
time step continuity errors : sum local = 0.01041268497171476, global = 0.0005183469016856787, cumulative = 0.007455177259330988
ExecutionTime = 39.47 s  ClockTime = 39 s
Inflow      : 6.069716906688021e-08 [kg/s]
Outflow     : 1.27295535252819e-07 [kg/s]
EnergyInflow  : 0.0183184056243008 [W]
EnergyOutflow : 0.0385518854356872 [W]
EnergyBalance : 0.0202334798113864 [W]
rho max/avg/min : 1.176411350676357 1.172299992912238 1.160145016320347
T   max/avg/min : 304.1756429136881 301.0454325345387 300.000046241872
P   max/avg/min : 101324.9865753318 101321.282252582 101313.597832274
Prg max/avg/min : 101325.0025422211 101324.9816541185 101324.8343430129
U   max/avg/min : 0.002623515846537184 0.0001317973155329384 -0.0007262400312054141
Prg max-min : 0.1681992082594661
 
Iteration Number = 37

DILUPBiCG:  Solving for Ux, Initial residual = 0.03624559411106001, Final residual = 1.114417948076472e-05, No Iterations 2
DILUPBiCG:  Solving for Uy, Initial residual = 0.04176213856281841, Final residual = 1.204648663109986e-05, No Iterations 2
DILUPBiCG:  Solving for Uz, Initial residual = 0.03264286366756724, Final residual = 5.320990129095151e-06, No Iterations 2
DILUPBiCG:  Solving for h, Initial residual = 0.009256725918615807, Final residual = 4.963754826088965e-06, No Iterations 3
GAMG:  Solving for p_rgh, Initial residual = 0.02584968171556435, Final residual = 0.002025110754841579, No Iterations 3
time step continuity errors : sum local = 0.01091337577362099, global = 0.0005957023584818967, cumulative = 0.008050879617812885
ExecutionTime = 40.58 s  ClockTime = 40 s
Inflow      : 5.724267434898095e-08 [kg/s]
Outflow     : 1.337798421780778e-07 [kg/s]
EnergyInflow  : 0.01727583911852059 [W]
EnergyOutflow : 0.04051974277595039 [W]
EnergyBalance : 0.0232439036574298 [W]
rho max/avg/min : 1.176411337725771 1.172183317838342 1.159907161504566
T   max/avg/min : 304.238838298684 301.075568871588 300.0000560554337
P   max/avg/min : 101324.9857493203 101321.2793799136 101313.5927971042
Prg max/avg/min : 101325.00117658 101324.9784116777 101324.8270329961
U   max/avg/min : 0.003194011193561675 0.0001551427560309176 -0.0007030471068268944
Prg max-min : 0.1741435838630423
 
Iteration Number = 38

DILUPBiCG:  Solving for Ux, Initial residual = 0.03601192758118948, Final residual = 1.144288520116332e-05, No Iterations 2
DILUPBiCG:  Solving for Uy, Initial residual = 0.03605285740004895, Final residual = 9.110938246577481e-06, No Iterations 2
DILUPBiCG:  Solving for Uz, Initial residual = 0.03218962665106917, Final residual = 5.255555976509388e-06, No Iterations 2
DILUPBiCG:  Solving for h, Initial residual = 0.009035662079202792, Final residual = 4.704680594739824e-06, No Iterations 3
GAMG:  Solving for p_rgh, Initial residual = 0.02627168859437336, Final residual = 0.002397546269216081, No Iterations 3
time step continuity errors : sum local = 0.01313386290135117, global = -0.0002936218014180974, cumulative = 0.007757257816394787
ExecutionTime = 41.71 s  ClockTime = 42 s
Inflow      : 1.779545061631054e-07 [kg/s]
Outflow     : 1.402293221454705e-07 [kg/s]
EnergyInflow  : 0.05370666996038576 [W]
EnergyOutflow : 0.0424775742679246 [W]
EnergyBalance : -0.01122909569246116 [W]
rho max/avg/min : 1.176411284531133 1.172066556898781 1.159673407488187
T   max/avg/min : 304.3009220024679 301.1057242093985 300.0000674439198
P   max/avg/min : 101324.9832497332 101321.2760250547 101313.5879959181
Prg max/avg/min : 101324.9985662289 101324.9746867506 101324.8200858377
U   max/avg/min : 0.003098493156059783 0.0001839443655081269 -0.0006704529888880187
Prg max-min : 0.1784803912159987
 
Iteration Number = 39

DILUPBiCG:  Solving for Ux, Initial residual = 0.04032911810634825, Final residual = 1.323197459619396e-05, No Iterations 2
DILUPBiCG:  Solving for Uy, Initial residual = 0.03688570726611571, Final residual = 8.644426246061727e-06, No Iterations 2
DILUPBiCG:  Solving for Uz, Initial residual = 0.03316900954762567, Final residual = 5.433828869822831e-06, No Iterations 2
DILUPBiCG:  Solving for h, Initial residual = 0.008824496813153521, Final residual = 4.576955464342398e-06, No Iterations 3
GAMG:  Solving for p_rgh, Initial residual = 0.02635997444630021, Final residual = 0.002292478803659014, No Iterations 3
time step continuity errors : sum local = 0.01278736458897957, global = 0.0003977449079691986, cumulative = 0.008155002724363985
ExecutionTime = 42.84 s  ClockTime = 43 s
Inflow      : 9.550053555084822e-08 [kg/s]
Outflow     : 1.466036885616474e-07 [kg/s]
EnergyInflow  : 0.02882206162910692 [W]
EnergyOutflow : 0.04441318977721796 [W]
EnergyBalance : 0.01559112814811104 [W]
rho max/avg/min : 1.176411202512396 1.1719497942555 1.159439337557715
T   max/avg/min : 304.3630293761452 301.135887084558 300.0000806055222
P   max/avg/min : 101324.9869602064 101321.2775284087 101313.586512132
Prg max/avg/min : 101325.0024754284 101324.9758199283 101324.8161092217
U   max/avg/min : 0.00377017297487329 0.000214924759790156 -0.0006395171109884236
Prg max-min : 0.1863662067044061
 
Iteration Number = 40

DILUPBiCG:  Solving for Ux, Initial residual = 0.03700089655818063, Final residual = 1.135227298716154e-05, No Iterations 2
DILUPBiCG:  Solving for Uy, Initial residual = 0.04795154824521553, Final residual = 1.318090519350749e-05, No Iterations 2
DILUPBiCG:  Solving for Uz, Initial residual = 0.03315375003497445, Final residual = 5.526484504627801e-06, No Iterations 2
DILUPBiCG:  Solving for h, Initial residual = 0.008621617702404435, Final residual = 4.516837201194657e-06, No Iterations 3
GAMG:  Solving for p_rgh, Initial residual = 0.02564831335126404, Final residual = 0.002427469186998317, No Iterations 3
time step continuity errors : sum local = 0.01379199616365526, global = -0.0003433248141559163, cumulative = 0.007811677910208069
ExecutionTime = 43.97 s  ClockTime = 44 s
Inflow      : 1.969567038212783e-07 [kg/s]
Outflow     : 1.528455658563985e-07 [kg/s]
EnergyInflow  : 0.05944153321366086 [W]
EnergyOutflow : 0.04630924228348748 [W]
EnergyBalance : -0.01313229093017337 [W]
rho max/avg/min : 1.176411183164271 1.171833097501215 1.159208966001382
T   max/avg/min : 304.4229401644249 301.1660560303793 300.0000957643255
P   max/avg/min : 101324.9843721829 101321.27444659 101313.5819126822
Prg max/avg/min : 101325.0002684475 101324.9723681107 101324.80931888
U   max/avg/min : 0.003964313870850954 0.0002460864217607936 -0.0006155122228195605
Prg max-min : 0.1909495675208746
 
Iteration Number = 41

DILUPBiCG:  Solving for Ux, Initial residual = 0.04045960546120016, Final residual = 1.273812853732965e-05, No Iterations 2
DILUPBiCG:  Solving for Uy, Initial residual = 0.03679284367373638, Final residual = 7.859178127597498e-06, No Iterations 2
DILUPBiCG:  Solving for Uz, Initial residual = 0.0320120759399223, Final residual = 5.219131156191408e-06, No Iterations 2
DILUPBiCG:  Solving for h, Initial residual = 0.008427938956501216, Final residual = 4.721564258869879e-06, No Iterations 3
GAMG:  Solving for p_rgh, Initial residual = 0.02659611948276203, Final residual = 0.002468967425421526, No Iterations 3
time step continuity errors : sum local = 0.01424231008624872, global = 0.0004344523912225685, cumulative = 0.008246130301430638
ExecutionTime = 45.11 s  ClockTime = 45 s
Inflow      : 1.031502170563275e-07 [kg/s]
Outflow     : 1.589696293975416e-07 [kg/s]
EnergyInflow  : 0.03113073550741801 [W]
EnergyOutflow : 0.0481701573412233 [W]
EnergyBalance : 0.0170394218338053 [W]
rho max/avg/min : 1.176411088946548 1.17171633893909 1.158978016230774
T   max/avg/min : 304.4842359673673 301.1962357450089 300.0001131495408
P   max/avg/min : 101324.9863112385 101321.2754572998 101313.5806963643
Prg max/avg/min : 101325.0033327871 101324.9730085762 101324.8057534603
U   max/avg/min : 0.004653303965362067 0.0002797409295065376 -0.000582098544114113
Prg max-min : 0.1975793267483823
 
Iteration Number = 42

DILUPBiCG:  Solving for Ux, Initial residual = 0.0413034267563648, Final residual = 1.275749305069518e-05, No Iterations 2
DILUPBiCG:  Solving for Uy, Initial residual = 0.0414716848450955, Final residual = 1.157591253545052e-05, No Iterations 2
DILUPBiCG:  Solving for Uz, Initial residual = 0.03265194304453881, Final residual = 5.300801843859009e-06, No Iterations 2
DILUPBiCG:  Solving for h, Initial residual = 0.008242067728816686, Final residual = 4.398259993072029e-06, No Iterations 3
GAMG:  Solving for p_rgh, Initial residual = 0.0265243491991392, Final residual = 0.002087781530386942, No Iterations 4
time step continuity errors : sum local = 0.01223839711604208, global = 0.0005545731293521456, cumulative = 0.008800703430782784
ExecutionTime = 46.26 s  ClockTime = 46 s
Inflow      : 9.365721980112386e-08 [kg/s]
Outflow     : 1.649100125261512e-07 [kg/s]
EnergyInflow  : 0.02826574893596703 [W]
EnergyOutflow : 0.04997599513628308 [W]
EnergyBalance : 0.02171024620031605 [W]
rho max/avg/min : 1.176411035353997 1.171599644493547 1.158750499364418
T   max/avg/min : 304.5455079614332 301.2264197306546 300.0001325947135
P   max/avg/min : 101324.9857362718 101321.2729995619 101313.5750449343
Prg max/avg/min : 101325.0030822708 101324.9701807785 101324.797661969
U   max/avg/min : 0.005008059283040375 0.0003137444644888688 -0.0005377675988928564
Prg max-min : 0.2054203018051339
 
Iteration Number = 43

DILUPBiCG:  Solving for Ux, Initial residual = 0.04258667995808482, Final residual = 1.140420533928546e-05, No Iterations 2
DILUPBiCG:  Solving for Uy, Initial residual = 0.04851394327181314, Final residual = 1.189075845520775e-05, No Iterations 2
DILUPBiCG:  Solving for Uz, Initial residual = 0.03383598735643804, Final residual = 5.470312277235122e-06, No Iterations 2
DILUPBiCG:  Solving for h, Initial residual = 0.008062709420862272, Final residual = 4.560683012356222e-06, No Iterations 3
GAMG:  Solving for p_rgh, Initial residual = 0.02748143899268933, Final residual = 0.002274304939943741, No Iterations 4
time step continuity errors : sum local = 0.01350884443040141, global = -0.000299233495316343, cumulative = 0.008501469935466442
ExecutionTime = 47.42 s  ClockTime = 47 s
Inflow      : 2.090695367323608e-07 [kg/s]
Outflow     : 1.706233497648891e-07 [kg/s]
EnergyInflow  : 0.06309718618633431 [W]
EnergyOutflow : 0.05171362535822192 [W]
EnergyBalance : -0.01138356082811239 [W]
rho max/avg/min : 1.176410942689015 1.171482933586452 1.15852215919604
T   max/avg/min : 304.6053737625035 301.2566061835171 300.0001545456531
P   max/avg/min : 101324.9834024892 101321.2700944943 101313.5698784662
Prg max/avg/min : 101325.0027545449 101324.9669055884 101324.7902503375
U   max/avg/min : 0.005480649329083287 0.0003522723723067751 -0.0004812121100853222
Prg max-min : 0.2125042074476369
 
Iteration Number = 44

DILUPBiCG:  Solving for Ux, Initial residual = 0.04901240106575603, Final residual = 1.372531175503984e-05, No Iterations 2
DILUPBiCG:  Solving for Uy, Initial residual = 0.04118414696826576, Final residual = 8.514613496986138e-06, No Iterations 2
DILUPBiCG:  Solving for Uz, Initial residual = 0.03550725170253243, Final residual = 5.800229614826528e-06, No Iterations 2
DILUPBiCG:  Solving for h, Initial residual = 0.007891155004183749, Final residual = 4.738079953553041e-06, No Iterations 3
GAMG:  Solving for p_rgh, Initial residual = 0.02791259363808615, Final residual = 0.00250462570964363, No Iterations 4
time step continuity errors : sum local = 0.01511265840435923, global = 0.0003092153800509301, cumulative = 0.008810685315517371
ExecutionTime = 48.59 s  ClockTime = 48 s
Inflow      : 1.363734267217721e-07 [kg/s]
Outflow     : 1.761021085060698e-07 [kg/s]
EnergyInflow  : 0.04115750018440914 [W]
EnergyOutflow : 0.0533807196495558 [W]
EnergyBalance : 0.01222321946514666 [W]
rho max/avg/min : 1.176410817761059 1.171366253749069 1.158298638008135
T   max/avg/min : 304.6636187058518 301.2867918767542 300.0001792664742
P   max/avg/min : 101324.9867497719 101321.2716738886 101313.5679514834
Prg max/avg/min : 101325.0075322602 101324.9681148836 101324.7861184117
U   max/avg/min : 0.006410719001133403 0.0003923767294714237 -0.000416194372491825
Prg max-min : 0.2214138485724106
 
Iteration Number = 45

DILUPBiCG:  Solving for Ux, Initial residual = 0.0536722284882666, Final residual = 1.487221236911218e-05, No Iterations 2
DILUPBiCG:  Solving for Uy, Initial residual = 0.04776309913065311, Final residual = 1.053846273349424e-05, No Iterations 2
DILUPBiCG:  Solving for Uz, Initial residual = 0.03627755323245578, Final residual = 5.920303484197164e-06, No Iterations 2
DILUPBiCG:  Solving for h, Initial residual = 0.007727119987325413, Final residual = 4.547280583005872e-06, No Iterations 3
GAMG:  Solving for p_rgh, Initial residual = 0.02858754932102604, Final residual = 0.002786257640522975, No Iterations 4
time step continuity errors : sum local = 0.01706085632531574, global = 0.0004986093539850886, cumulative = 0.00930929466950246
ExecutionTime = 49.73 s  ClockTime = 50 s
Inflow      : 1.172505544721414e-07 [kg/s]
Outflow     : 1.813129965016983e-07 [kg/s]
EnergyInflow  : 0.03538621733965622 [W]
EnergyOutflow : 0.05496719796213109 [W]
EnergyBalance : 0.01958098062247488 [W]
rho max/avg/min : 1.176410747276236 1.171249657863346 1.158075734290534
T   max/avg/min : 304.7239047895237 301.3169779125957 300.0002067505815
P   max/avg/min : 101324.9864469752 101321.2721050686 101313.5667761303
Prg max/avg/min : 101325.0104073615 101324.9681761964 101324.7827698167
U   max/avg/min : 0.007036858804676495 0.0004300412949610072 -0.0003515604561578998
Prg max-min : 0.2276375448709587
 
Iteration Number = 46

DILUPBiCG:  Solving for Ux, Initial residual = 0.05634527478734592, Final residual = 1.65476038456261e-05, No Iterations 2
DILUPBiCG:  Solving for Uy, Initial residual = 0.04929300910328423, Final residual = 1.031640716110354e-05, No Iterations 2
DILUPBiCG:  Solving for Uz, Initial residual = 0.037403492739989, Final residual = 6.06749925891524e-06, No Iterations 2
DILUPBiCG:  Solving for h, Initial residual = 0.007570090871751179, Final residual = 4.732935703081078e-06, No Iterations 3
GAMG:  Solving for p_rgh, Initial residual = 0.02937573331854426, Final residual = 0.002690481117232049, No Iterations 5
time step continuity errors : sum local = 0.01673574738594064, global = -0.0001787321876003585, cumulative = 0.009130562481902102
ExecutionTime = 50.93 s  ClockTime = 51 s
Inflow      : 2.092279242930029e-07 [kg/s]
Outflow     : 1.862640141387439e-07 [kg/s]
EnergyInflow  : 0.06314498755203615 [W]
EnergyOutflow : 0.05647544971815341 [W]
EnergyBalance : -0.006669537833882744 [W]
rho max/avg/min : 1.176410626205429 1.171133070966041 1.157851017909633
T   max/avg/min : 304.7824639247287 301.347166783863 300.0002377208147
P   max/avg/min : 101324.9834406003 101321.2666567477 101313.5591353502
Prg max/avg/min : 101325.0108528829 101324.9623580567 101324.7730567068
U   max/avg/min : 0.008066346202981757 0.000471479420325709 -0.001325129644540759
Prg max-min : 0.2377961760939797
 
Iteration Number = 47

DILUPBiCG:  Solving for Ux, Initial residual = 0.06002215609338163, Final residual = 1.713694848285142e-05, No Iterations 2
DILUPBiCG:  Solving for Uy, Initial residual = 0.05669152544304907, Final residual = 1.277657746620744e-05, No Iterations 2
DILUPBiCG:  Solving for Uz, Initial residual = 0.04065534604589967, Final residual = 6.585712080509878e-06, No Iterations 2
DILUPBiCG:  Solving for h, Initial residual = 0.007419244420599683, Final residual = 4.67571796534978e-06, No Iterations 3
GAMG:  Solving for p_rgh, Initial residual = 0.03158486417190801, Final residual = 0.003030050911475441, No Iterations 5
time step continuity errors : sum local = 0.01915556361366848, global = 0.0002373696215545411, cumulative = 0.009367932103456643
ExecutionTime = 52.13 s  ClockTime = 52 s
Inflow      : 1.604212101880445e-07 [kg/s]
Outflow     : 1.909189886570607e-07 [kg/s]
EnergyInflow  : 0.04841512123457237 [W]
EnergyOutflow : 0.05789451821949656 [W]
EnergyBalance : 0.009479396984924192 [W]
rho max/avg/min : 1.176410456702496 1.171016486008279 1.157626977749728
T   max/avg/min : 304.8417579219979 301.3773462464811 300.0002711131661
P   max/avg/min : 101324.9860369937 101321.268079148 101313.5575658119
Prg max/avg/min : 101325.0121869378 101324.9634105534 101324.7693718895
U   max/avg/min : 0.008422448620948665 0.0005175432354577377 -0.00166607127340182
Prg max-min : 0.2428150482592173
 
Iteration Number = 48

DILUPBiCG:  Solving for Ux, Initial residual = 0.0673580511569993, Final residual = 1.891846364684466e-05, No Iterations 2
DILUPBiCG:  Solving for Uy, Initial residual = 0.0573511901688888, Final residual = 1.189930181495739e-05, No Iterations 2
DILUPBiCG:  Solving for Uz, Initial residual = 0.04206747645326257, Final residual = 6.801247440683103e-06, No Iterations 2
DILUPBiCG:  Solving for h, Initial residual = 0.007274038446326857, Final residual = 4.71496072662493e-06, No Iterations 3
GAMG:  Solving for p_rgh, Initial residual = 0.03280613940985402, Final residual = 0.002952897536017431, No Iterations 6
time step continuity errors : sum local = 0.01896183208500875, global = 0.0003071479868014099, cumulative = 0.009675080090258054
ExecutionTime = 53.35 s  ClockTime = 53 s
Inflow      : 1.558344268986467e-07 [kg/s]
Outflow     : 1.952974853866253e-07 [kg/s]
EnergyInflow  : 0.04703083003799022 [W]
EnergyOutflow : 0.05923031518865483 [W]
EnergyBalance : 0.01219948515066461 [W]
rho max/avg/min : 1.176410339555848 1.170900027723011 1.157405356620466
T   max/avg/min : 304.9009925335795 301.4075221235793 300.0003083519782
P   max/avg/min : 101324.9862628021 101321.2689077758 101313.555712331
Prg max/avg/min : 101325.0271759638 101324.9638696429 101324.765438417
U   max/avg/min : 0.01097816917518363 0.0005611010464942834 -0.002634426682585948
Prg max-min : 0.2617375467671081
 
Iteration Number = 49

DILUPBiCG:  Solving for Ux, Initial residual = 0.07558434341359181, Final residual = 2.022711447601724e-05, No Iterations 2
DILUPBiCG:  Solving for Uy, Initial residual = 0.06650848107168764, Final residual = 1.478482085133576e-05, No Iterations 2
DILUPBiCG:  Solving for Uz, Initial residual = 0.04649854062155422, Final residual = 7.532498141858605e-06, No Iterations 2
DILUPBiCG:  Solving for h, Initial residual = 0.007135303259632227, Final residual = 4.661891564091629e-06, No Iterations 3
GAMG:  Solving for p_rgh, Initial residual = 0.03465937742516368, Final residual = 0.002865224282424176, No Iterations 7
time step continuity errors : sum local = 0.01871579454679654, global = 0.0002117824721048292, cumulative = 0.009886862562362883
ExecutionTime = 54.63 s  ClockTime = 54 s
Inflow      : 1.721928686693124e-07 [kg/s]
Outflow     : 1.994031531007229e-07 [kg/s]
EnergyInflow  : 0.05196780776444474 [W]
EnergyOutflow : 0.0604838926947579 [W]
EnergyBalance : 0.00851608493031316 [W]
rho max/avg/min : 1.17641018373913 1.170783617323507 1.157184652144926
T   max/avg/min : 304.9582853547997 301.437692471027 300.0003495572324
P   max/avg/min : 101324.9851608098 101321.2673162226 101313.5514918312
Prg max/avg/min : 101325.0304266535 101324.9619087069 101324.7590365277
U   max/avg/min : 0.0111653987881267 0.0006049531659864209 -0.004138694694060457
Prg max-min : 0.2713901258393889
 
Iteration Number = 50

DILUPBiCG:  Solving for Ux, Initial residual = 0.08499730180422752, Final residual = 2.162361657936844e-05, No Iterations 2
DILUPBiCG:  Solving for Uy, Initial residual = 0.07504972300445462, Final residual = 1.425846518666472e-05, No Iterations 2
DILUPBiCG:  Solving for Uz, Initial residual = 0.05193099969462523, Final residual = 8.439704796251261e-06, No Iterations 2
DILUPBiCG:  Solving for h, Initial residual = 0.007001972077658858, Final residual = 4.674438144656896e-06, No Iterations 3
GAMG:  Solving for p_rgh, Initial residual = 0.03763485285452537, Final residual = 0.003665750061968597, No Iterations 7
time step continuity errors : sum local = 0.02436578527022837, global = -0.0001093214703650024, cumulative = 0.009777541091997881
ExecutionTime = 55.92 s  ClockTime = 56 s
Inflow      : 2.173229757671854e-07 [kg/s]
Outflow     : 2.032771093952923e-07 [kg/s]
EnergyInflow  : 0.06558807408677746 [W]
EnergyOutflow : 0.06166770971782345 [W]
EnergyBalance : -0.003920364368954009 [W]
rho max/avg/min : 1.17640999538396 1.170667244200821 1.156963218685292
T   max/avg/min : 305.0166842771284 301.4678545940314 300.0003943675937
P   max/avg/min : 101324.9845166844 101321.266117176 101313.5482016395
Prg max/avg/min : 101325.0366902 101324.9603403611 101324.7536805552
U   max/avg/min : 0.01444655450117389 0.0006515130341834511 -0.005142471161214792
Prg max-min : 0.2830096447432879
 
Iteration Number = 51

DILUPBiCG:  Solving for Ux, Initial residual = 0.1015284913574615, Final residual = 2.380571626141331e-05, No Iterations 2
DILUPBiCG:  Solving for Uy, Initial residual = 0.08374174365778575, Final residual = 1.608123607775766e-05, No Iterations 2
DILUPBiCG:  Solving for Uz, Initial residual = 0.05707616673324831, Final residual = 9.399259501773771e-06, No Iterations 2
DILUPBiCG:  Solving for h, Initial residual = 0.006872336249600478, Final residual = 4.497719306014118e-06, No Iterations 3
GAMG:  Solving for p_rgh, Initial residual = 0.04158476049421896, Final residual = 0.003677286155263033, No Iterations 8
time step continuity errors : sum local = 0.02490201616829101, global = 0.0002157363890354132, cumulative = 0.009993277481033293
ExecutionTime = 57.19 s  ClockTime = 57 s
Inflow      : 1.793096075234393e-07 [kg/s]
Outflow     : 2.070279000219588e-07 [kg/s]
EnergyInflow  : 0.05411563955040965 [W]
EnergyOutflow : 0.0628145828740895 [W]
EnergyBalance : 0.008698943323679854 [W]
rho max/avg/min : 1.176409799317787 1.170550952512487 1.156744207622175
T   max/avg/min : 305.0760033066161 301.4980054774156 300.0004425853616
P   max/avg/min : 101324.9861044737 101321.2671272064 101313.5466720477
Prg max/avg/min : 101325.0568972119 101324.9609812906 101324.7499516859
U   max/avg/min : 0.01714162566010115 0.0006988117595319185 -0.007155905394427276
Prg max-min : 0.3069455260556424
 
Iteration Number = 52

DILUPBiCG:  Solving for Ux, Initial residual = 0.1199395167472286, Final residual = 2.500597230475136e-05, No Iterations 2
DILUPBiCG:  Solving for Uy, Initial residual = 0.1009974680178917, Final residual = 1.814009587483681e-05, No Iterations 2
DILUPBiCG:  Solving for Uz, Initial residual = 0.06466157141837971, Final residual = 1.060148506331204e-05, No Iterations 2
DILUPBiCG:  Solving for h, Initial residual = 0.006748657758513527, Final residual = 4.382579470517976e-06, No Iterations 3
GAMG:  Solving for p_rgh, Initial residual = 0.04671720799477164, Final residual = 0.004649463296409462, No Iterations 8
time step continuity errors : sum local = 0.03207043190953057, global = 0.0001818794584291732, cumulative = 0.01017515693946247
ExecutionTime = 58.48 s  ClockTime = 58 s
Inflow      : 1.874291910758942e-07 [kg/s]
Outflow     : 2.107974696067139e-07 [kg/s]
EnergyInflow  : 0.05656612986673579 [W]
EnergyOutflow : 0.063967558204044 [W]
EnergyBalance : 0.007401428337308204 [W]
rho max/avg/min : 1.176409606149994 1.170434755875842 1.156523800005744
T   max/avg/min : 305.1332032537815 301.5281470059605 300.0004959971889
P   max/avg/min : 101324.9853348185 101321.2676252962 101313.5460299713
Prg max/avg/min : 101325.0557188848 101324.9611105541 101324.747166527
U   max/avg/min : 0.01814477343481144 0.0007450215168727736 -0.01023763941173666
Prg max-min : 0.3085523578047287
 
Iteration Number = 53

DILUPBiCG:  Solving for Ux, Initial residual = 0.1405047616841521, Final residual = 2.598048780584269e-05, No Iterations 2
DILUPBiCG:  Solving for Uy, Initial residual = 0.1159788065772106, Final residual = 1.937533006304487e-05, No Iterations 2
DILUPBiCG:  Solving for Uz, Initial residual = 0.06851412632391723, Final residual = 1.167586936131676e-05, No Iterations 2
DILUPBiCG:  Solving for h, Initial residual = 0.006630173836416014, Final residual = 4.208876217589496e-06, No Iterations 3
GAMG:  Solving for p_rgh, Initial residual = 0.05026506434906813, Final residual = 0.004326535762271562, No Iterations 9
time step continuity errors : sum local = 0.03037171979543431, global = 0.0001583722293218085, cumulative = 0.01033352916878427
ExecutionTime = 59.81 s  ClockTime = 60 s
Inflow      : 1.944219085221466e-07 [kg/s]
Outflow     : 2.147699258205397e-07 [kg/s]
EnergyInflow  : 0.05867653199200697 [W]
EnergyOutflow : 0.06518230706038058 [W]
EnergyBalance : 0.006505775068373611 [W]
rho max/avg/min : 1.176409375071455 1.170318633287062 1.15630438093482
T   max/avg/min : 305.1905001153896 301.5582764861547 300.000553116249
P   max/avg/min : 101324.9851619637 101321.2682204703 101313.5453138786
Prg max/avg/min : 101325.0598396948 101324.9613371186 101324.7442108432
U   max/avg/min : 0.02162394159779585 0.0007910743376733934 -0.01187254081728253
Prg max-min : 0.3156288516329369
 
Iteration Number = 54

DILUPBiCG:  Solving for Ux, Initial residual = 0.1766300275701728, Final residual = 3.542716642490939e-05, No Iterations 2
DILUPBiCG:  Solving for Uy, Initial residual = 0.1362366139560033, Final residual = 2.079721153101763e-05, No Iterations 2
DILUPBiCG:  Solving for Uz, Initial residual = 0.07248416643608338, Final residual = 1.237168964095933e-05, No Iterations 2
DILUPBiCG:  Solving for h, Initial residual = 0.006516031056271902, Final residual = 4.578764804879196e-06, No Iterations 3
GAMG:  Solving for p_rgh, Initial residual = 0.06021000497418733, Final residual = 0.005162287632308223, No Iterations 9
time step continuity errors : sum local = 0.03699536750088257, global = 0.0001165607737275821, cumulative = 0.01045008994251186
ExecutionTime = 61.11 s  ClockTime = 61 s
Inflow      : 2.042603956340551e-07 [kg/s]
Outflow     : 2.192363838504285e-07 [kg/s]
EnergyInflow  : 0.06164578740239588 [W]
EnergyOutflow : 0.06654711406391958 [W]
EnergyBalance : 0.004901326661523701 [W]
rho max/avg/min : 1.176409132941495 1.170202586348297 1.156086483222314
T   max/avg/min : 305.2492210151913 301.5883952797108 300.0006147255417
P   max/avg/min : 101324.9853967432 101321.2687458318 101313.5450489412
Prg max/avg/min : 101325.0672205966 101324.9614940468 101324.7418339498
U   max/avg/min : 0.0246807074496559 0.0008366902385643974 -0.01240333436042802
Prg max-min : 0.3253866468148772
 
Iteration Number = 55

DILUPBiCG:  Solving for Ux, Initial residual = 0.2008242551862487, Final residual = 3.930936159970535e-05, No Iterations 2
DILUPBiCG:  Solving for Uy, Initial residual = 0.1581353817999424, Final residual = 2.416785359459978e-05, No Iterations 2
DILUPBiCG:  Solving for Uz, Initial residual = 0.07608948949067068, Final residual = 1.302362480421858e-05, No Iterations 2
DILUPBiCG:  Solving for h, Initial residual = 0.006406207277446622, Final residual = 4.087165551146191e-06, No Iterations 3
GAMG:  Solving for p_rgh, Initial residual = 0.0602011517835735, Final residual = 0.005614954072824778, No Iterations 9
time step continuity errors : sum local = 0.04079382513393676, global = 0.0001498552522314829, cumulative = 0.01059994519474334
ExecutionTime = 62.42 s  ClockTime = 62 s
Inflow      : 2.051986417020835e-07 [kg/s]
Outflow     : 2.24452378785415e-07 [kg/s]
EnergyInflow  : 0.06192895006569278 [W]
EnergyOutflow : 0.06813935192267843 [W]
EnergyBalance : 0.006210401856985653 [W]
rho max/avg/min : 1.176408874323388 1.170086638605222 1.155870439191937
T   max/avg/min : 305.3052827415842 301.6184968427687 300.0006813800084
[...]
time step continuity errors : sum local = 1.482171451292799, global = 0.01192910269556718, cumulative = 0.08091486679013013
ExecutionTime = 163.4 s  ClockTime = 163 s
Inflow      : -1.358943233733063e-05 [kg/s]
Outflow     : -1.205675461319257e-05 [kg/s]
EnergyInflow  : -4.101290899195452 [W]
EnergyOutflow : -3.638736774769006 [W]
EnergyBalance : 0.4625541244264464 [W]
rho max/avg/min : 1.176344368354944 1.163146544963785 1.13109901296063
T   max/avg/min : 312.018447614993 303.428037933463 300.0178209461292
P   max/avg/min : 101326.5023375377 101318.9525447766 101308.4560344414
Prg max/avg/min : 101327.420395863 101322.6230558641 101316.8923340409
U   max/avg/min : 0.09253825435704371 -0.06873547508980132 -0.7437676118844261
Prg max-min : 10.52806182215863
 
Iteration Number = 117

DILUPBiCG:  Solving for Ux, Initial residual = 0.3859237835952481, Final residual = 3.055268998673746e-06, No Iterations 3
DILUPBiCG:  Solving for Uy, Initial residual = 0.4003155521352316, Final residual = 2.641843382735336e-06, No Iterations 3
DILUPBiCG:  Solving for Uz, Initial residual = 0.09027247157344374, Final residual = 1.665971412758895e-05, No Iterations 2
DILUPBiCG:  Solving for h, Initial residual = 0.003385263332757145, Final residual = 2.13553102506173e-06, No Iterations 4
GAMG:  Solving for p_rgh, Initial residual = 0.5063969677642444, Final residual = 0.04921934663926575, No Iterations 40
time step continuity errors : sum local = 1.717723200037152, global = 9.932605477393223e-05, cumulative = 0.08101419284490406
ExecutionTime = 165.36 s  ClockTime = 165 s
Inflow      : -1.343211856158223e-05 [kg/s]
Outflow     : -1.341935692850227e-05 [kg/s]
EnergyInflow  : -4.053813679569513 [W]
EnergyOutflow : -4.049965663650207 [W]
EnergyBalance : 0.003848015919305503 [W]
rho max/avg/min : 1.176341433724066 1.163036034310755 1.122387089106195
T   max/avg/min : 314.4403141356963 303.4581712902287 300.0183313522107
P   max/avg/min : 101327.7719627567 101319.1495484355 101306.894225091
Prg max/avg/min : 101328.5207085006 101322.8197097997 101316.9637696264
U   max/avg/min : 0.2002653891772955 -0.06631624598337506 -0.7489169057509434
Prg max-min : 11.55693887425878
 
Iteration Number = 118

DILUPBiCG:  Solving for Ux, Initial residual = 0.3883006744759338, Final residual = 2.871041881870061e-06, No Iterations 3
DILUPBiCG:  Solving for Uy, Initial residual = 0.4131130297563709, Final residual = 5.700844063577501e-06, No Iterations 3
DILUPBiCG:  Solving for Uz, Initial residual = 0.1048228244203149, Final residual = 7.227725426775885e-05, No Iterations 2
DILUPBiCG:  Solving for h, Initial residual = 0.003379421800940578, Final residual = 2.352590764493961e-06, No Iterations 4
GAMG:  Solving for p_rgh, Initial residual = 0.5323800599507016, Final residual = 0.0520704581740281, No Iterations 40
time step continuity errors : sum local = 2.029613111507785, global = -0.01230646287548843, cumulative = 0.06870772996941563
ExecutionTime = 167.3 s  ClockTime = 167 s
Inflow      : -1.337456315212232e-05 [kg/s]
Outflow     : -1.495572495394075e-05 [kg/s]
EnergyInflow  : -4.036443410034674 [W]
EnergyOutflow : -4.513637791099319 [W]
EnergyBalance : -0.4771943810646446 [W]
rho max/avg/min : 1.176336331877138 1.162925146560668 1.115035333774553
T   max/avg/min : 316.5136442293106 303.488083143318 300.0189034513347
P   max/avg/min : 101327.8852414225 101319.3330209057 101306.2281243645
Prg max/avg/min : 101328.5444783104 101323.0028447588 101317.0411456888
U   max/avg/min : 0.2436558420570737 -0.06405233931229708 -0.7800813984578756
Prg max-min : 11.50333262154891
 
Iteration Number = 119

DILUPBiCG:  Solving for Ux, Initial residual = 0.3825701493056725, Final residual = 3.515079426030255e-06, No Iterations 3
DILUPBiCG:  Solving for Uy, Initial residual = 0.404831234896829, Final residual = 4.549759287126324e-06, No Iterations 3
DILUPBiCG:  Solving for Uz, Initial residual = 0.1212324249870785, Final residual = 0.0001127130845850823, No Iterations 2
DILUPBiCG:  Solving for h, Initial residual = 0.003393108037779263, Final residual = 1.9384557141864e-07, No Iterations 6
GAMG:  Solving for p_rgh, Initial residual = 0.5467023012518771, Final residual = 0.05400258006176253, No Iterations 40
time step continuity errors : sum local = 2.381570337857481, global = -0.0230430575794639, cumulative = 0.04566467238995173
ExecutionTime = 169.29 s  ClockTime = 169 s
Inflow      : -1.331645324923529e-05 [kg/s]
Outflow     : -1.627707668834851e-05 [kg/s]
EnergyInflow  : -4.018905689220803 [W]
EnergyOutflow : -4.912421744543576 [W]
EnergyBalance : -0.893516055322773 [W]
rho max/avg/min : 1.176332411414992 1.162814406926861 1.114786536774497
T   max/avg/min : 316.5842627965403 303.5179147144503 300.019472362073
P   max/avg/min : 101327.2482332604 101319.3136300484 101306.1750655511
Prg max/avg/min : 101328.6940963103 101322.9831257679 101316.7530763754
U   max/avg/min : 0.4003647526783849 -0.06172239946065164 -0.7421206049943929
Prg max-min : 11.94101993489312
 
Iteration Number = 120

DILUPBiCG:  Solving for Ux, Initial residual = 0.3825670057927028, Final residual = 4.171788500777951e-06, No Iterations 3
DILUPBiCG:  Solving for Uy, Initial residual = 0.3989778930772483, Final residual = 9.130847992500664e-06, No Iterations 3
DILUPBiCG:  Solving for Uz, Initial residual = 0.1407593925123915, Final residual = 7.441683277065465e-05, No Iterations 2
DILUPBiCG:  Solving for h, Initial residual = 0.003421566073499351, Final residual = 3.180799578204733e-06, No Iterations 5
GAMG:  Solving for p_rgh, Initial residual = 0.5607366021369958, Final residual = 0.05535870006085385, No Iterations 40
time step continuity errors : sum local = 2.756761910076331, global = -0.01355563308163926, cumulative = 0.03210903930831246
ExecutionTime = 171.24 s  ClockTime = 171 s
Inflow      : -1.531002657602543e-05 [kg/s]
Outflow     : -1.705168455240778e-05 [kg/s]
EnergyInflow  : -4.620566186305186 [W]
EnergyOutflow : -5.146198397916665 [W]
EnergyBalance : -0.5256322116114793 [W]
rho max/avg/min : 1.17633161513124 1.162702289060215 1.128560455862073
T   max/avg/min : 312.7194324844151 303.547489856594 300.0200417127132
P   max/avg/min : 101328.5900089444 101320.2271959167 101307.0886306894
Prg max/avg/min : 101330.7576345739 101323.8963665133 101317.0693822672
U   max/avg/min : 0.5720492124809449 -0.05973809899710445 -0.88518578777313
Prg max-min : 13.68825230671791
 
Iteration Number = 121

DILUPBiCG:  Solving for Ux, Initial residual = 0.366796934615817, Final residual = 4.818045630756116e-06, No Iterations 3
DILUPBiCG:  Solving for Uy, Initial residual = 0.3928651856190223, Final residual = 5.076114207675271e-06, No Iterations 3
DILUPBiCG:  Solving for Uz, Initial residual = 0.160809896738047, Final residual = 7.197933960831506e-05, No Iterations 2
DILUPBiCG:  Solving for h, Initial residual = 0.003474829409082725, Final residual = 3.314660191011265e-06, No Iterations 4
GAMG:  Solving for p_rgh, Initial residual = 0.5850364276850634, Final residual = 0.0581340163364741, No Iterations 39
time step continuity errors : sum local = 3.221641202865387, global = -0.02440447482467261, cumulative = 0.007704564483639851
ExecutionTime = 173.2 s  ClockTime = 173 s
Inflow      : -1.396039921828034e-05 [kg/s]
Outflow     : -1.709594058192115e-05 [kg/s]
EnergyInflow  : -4.213248743844023 [W]
EnergyOutflow : -5.159554867623805 [W]
EnergyBalance : -0.9463061237797818 [W]
rho max/avg/min : 1.17633457424346 1.162600687086974 1.128341384812313
T   max/avg/min : 312.7800191523193 303.5771408164967 300.0206059799999
P   max/avg/min : 101329.9438317552 101320.9481895586 101307.6921361933
Prg max/avg/min : 101333.1308682159 101324.6170790548 101317.9727091829
U   max/avg/min : 0.7313700460070133 -0.05886672126319645 -0.8647335488655392
Prg max-min : 15.15815903303155
 
Iteration Number = 122

DILUPBiCG:  Solving for Ux, Initial residual = 0.3848569973921336, Final residual = 7.365494982137088e-06, No Iterations 3
DILUPBiCG:  Solving for Uy, Initial residual = 0.4306039704230537, Final residual = 5.906968584712933e-06, No Iterations 3
DILUPBiCG:  Solving for Uz, Initial residual = 0.1764154368222328, Final residual = 6.855202319942074e-05, No Iterations 2
DILUPBiCG:  Solving for h, Initial residual = 0.003634859070235117, Final residual = 5.371402467388191e-07, No Iterations 5
GAMG:  Solving for p_rgh, Initial residual = 0.6148827735917897, Final residual = 0.06068719538087602, No Iterations 38
time step continuity errors : sum local = 3.653893619004343, global = -0.009803233305103458, cumulative = -0.002098668821463607
ExecutionTime = 175.11 s  ClockTime = 175 s
Inflow      : -1.519122531293587e-05 [kg/s]
Outflow     : -1.645076659568983e-05 [kg/s]
EnergyInflow  : -4.584712569377621 [W]
EnergyOutflow : -4.964841358579184 [W]
EnergyBalance : -0.3801287892015628 [W]
rho max/avg/min : 1.176332426995094 1.16249837963519 1.119692020509357
T   max/avg/min : 315.1971854706973 303.606402280977 300.0212031117852
P   max/avg/min : 101331.4167805952 101321.6720289601 101308.4559914361
Prg max/avg/min : 101333.9708185609 101325.3406357161 101318.3223959557
U   max/avg/min : 0.7476586528733948 -0.05890647035555072 -0.9533416698674628
Prg max-min : 15.64842260519799
 
Iteration Number = 123

DILUPBiCG:  Solving for Ux, Initial residual = 0.4209673562631058, Final residual = 8.514389964351645e-06, No Iterations 3
DILUPBiCG:  Solving for Uy, Initial residual = 0.459984134148721, Final residual = 3.580330871120439e-05, No Iterations 3
DILUPBiCG:  Solving for Uz, Initial residual = 0.183821264974029, Final residual = 1.973051498030835e-06, No Iterations 3
DILUPBiCG:  Solving for h, Initial residual = 0.003777764184921786, Final residual = 2.073087263774579e-06, No Iterations 5
GAMG:  Solving for p_rgh, Initial residual = 0.6675047613619218, Final residual = 0.06657306786458489, No Iterations 36
time step continuity errors : sum local = 4.41931944783728, global = -0.01239158030016475, cumulative = -0.01449024912162836
ExecutionTime = 176.98 s  ClockTime = 177 s
Inflow      : -1.374022119051581e-05 [kg/s]
Outflow     : -1.533231906892814e-05 [kg/s]
EnergyInflow  : -4.1467989202469 [W]
EnergyOutflow : -4.627294692562015 [W]
EnergyBalance : -0.4804957723151144 [W]
rho max/avg/min : 1.176326666486053 1.162397410670076 1.098193392512729
T   max/avg/min : 321.3708001996627 303.635330574614 300.0218803743748
P   max/avg/min : 101328.3848702021 101320.2874996499 101306.6144357146
Prg max/avg/min : 101330.5453751303 101323.955810734 101316.3578154625
U   max/avg/min : 0.7764461917368767 -0.05884994173709909 -0.8211173885831966
Prg max-min : 14.18755966774188
 
Iteration Number = 124

DILUPBiCG:  Solving for Ux, Initial residual = 0.4400146068017856, Final residual = 1.198232871680418e-05, No Iterations 3
DILUPBiCG:  Solving for Uy, Initial residual = 0.515990910915303, Final residual = 0.0002527212592086996, No Iterations 2
DILUPBiCG:  Solving for Uz, Initial residual = 0.1954881387994861, Final residual = 0.0001159907957883661, No Iterations 2
DILUPBiCG:  Solving for h, Initial residual = 0.003957873006025222, Final residual = 1.680776471864535e-06, No Iterations 5
GAMG:  Solving for p_rgh, Initial residual = 0.6681257622893099, Final residual = 0.06633300506070786, No Iterations 32
time step continuity errors : sum local = 4.744252334121636, global = -0.01432834321784437, cumulative = -0.02881859233947272
ExecutionTime = 178.73 s  ClockTime = 179 s
Inflow      : -1.224103149824495e-05 [kg/s]
Outflow     : -1.408196899658534e-05 [kg/s]
EnergyInflow  : -3.694343361273558 [W]
EnergyOutflow : -4.249936857912876 [W]
EnergyBalance : -0.5555934966393177 [W]
rho max/avg/min : 1.176316038083602 1.162270873032578 1.121433096397604
T   max/avg/min : 314.7090557218684 303.6645908567188 300.0225680196318
P   max/avg/min : 101329.7372044824 101320.2931144443 101305.2867445899
Prg max/avg/min : 101330.6443943544 101323.9610484407 101315.0961026621
U   max/avg/min : 0.7159984775963434 -0.05738290043339997 -0.9527625631350635
Prg max-min : 15.54829169236473
 
Iteration Number = 125

DILUPBiCG:  Solving for Ux, Initial residual = 0.4636534627773602, Final residual = 1.053452400087906e-05, No Iterations 3
DILUPBiCG:  Solving for Uy, Initial residual = 0.4933491651759753, Final residual = 0.0002461546211798443, No Iterations 2
DILUPBiCG:  Solving for Uz, Initial residual = 0.1912391580037058, Final residual = 7.402477283232832e-05, No Iterations 2
DILUPBiCG:  Solving for h, Initial residual = 0.004097079032964038, Final residual = 1.292876922215831e-06, No Iterations 5
GAMG:  Solving for p_rgh, Initial residual = 0.6931743796623311, Final residual = 0.06769117901470999, No Iterations 28
time step continuity errors : sum local = 5.191035710674332, global = 0.01322745680694677, cumulative = -0.01559113553252595
ExecutionTime = 180.36 s  ClockTime = 180 s
Inflow      : -1.472570305347137e-05 [kg/s]
Outflow     : -1.30262098969141e-05 [kg/s]
EnergyInflow  : -4.444217489769168 [W]
EnergyOutflow : -3.931292411673402 [W]
EnergyBalance : 0.5129250780957655 [W]
rho max/avg/min : 1.176314009394892 1.162163920163136 1.123708965822735
T   max/avg/min : 314.0683218681402 303.6928870097124 300.0232272987579
P   max/avg/min : 101330.653534642 101321.1397357879 101306.107398249
Prg max/avg/min : 101331.6844746954 101324.8073430038 101315.8889974926
U   max/avg/min : 0.7763680743676493 -0.05691132211728829 -0.9928517705155427
Prg max-min : 15.79547720275878
 
Iteration Number = 126

DILUPBiCG:  Solving for Ux, Initial residual = 0.4694287270830996, Final residual = 1.283888204740344e-05, No Iterations 3
DILUPBiCG:  Solving for Uy, Initial residual = 0.5223015760690523, Final residual = 0.000270560136833496, No Iterations 2
DILUPBiCG:  Solving for Uz, Initial residual = 0.190415678914646, Final residual = 0.0001383347235727431, No Iterations 2
DILUPBiCG:  Solving for h, Initial residual = 0.004091133156819836, Final residual = 7.248182919559642e-07, No Iterations 6
GAMG:  Solving for p_rgh, Initial residual = 0.7118264836669504, Final residual = 0.07075807735886241, No Iterations 29
time step continuity errors : sum local = 5.711220513273808, global = 0.02825696164774561, cumulative = 0.01266582611521967
ExecutionTime = 182.05 s  ClockTime = 182 s
Inflow      : -1.600663217607914e-05 [kg/s]
Outflow     : -1.237611471181323e-05 [kg/s]
EnergyInflow  : -4.830801951615129 [W]
EnergyOutflow : -3.735086345408869 [W]
EnergyBalance : 1.095715606206261 [W]
rho max/avg/min : 1.176324800007276 1.16206422017328 1.118398264607878
T   max/avg/min : 315.5611334714022 303.7218596738178 300.0239453637247
P   max/avg/min : 101332.5413035816 101322.3348004207 101307.9725523381
Prg max/avg/min : 101333.43271858 101326.0021160288 101317.7804571582
U   max/avg/min : 0.8759055908284543 -0.05716285120164427 -0.9251126623785682
Prg max-min : 15.65226142179745
 
Iteration Number = 127

DILUPBiCG:  Solving for Ux, Initial residual = 0.4549952668059651, Final residual = 1.481932331816688e-05, No Iterations 3
DILUPBiCG:  Solving for Uy, Initial residual = 0.5235053267828299, Final residual = 0.0002573711416915193, No Iterations 2
DILUPBiCG:  Solving for Uz, Initial residual = 0.1847124674865496, Final residual = 9.256188319258506e-05, No Iterations 2
DILUPBiCG:  Solving for h, Initial residual = 0.00419173600056543, Final residual = 3.700535481827587e-06, No Iterations 5
GAMG:  Solving for p_rgh, Initial residual = 0.729917214775634, Final residual = 0.07276269968055792, No Iterations 29
time step continuity errors : sum local = 6.191055797181005, global = 0.02569957666735011, cumulative = 0.03836540278256978
ExecutionTime = 183.72 s  ClockTime = 184 s
Inflow      : -1.557273197419613e-05 [kg/s]
Outflow     : -1.227079303687712e-05 [kg/s]
EnergyInflow  : -4.699851008656852 [W]
EnergyOutflow : -3.703333889064463 [W]
EnergyBalance : 0.9965171195923892 [W]
rho max/avg/min : 1.176326068919352 1.161967665965927 1.12266709718124
T   max/avg/min : 314.3632046555613 303.7510386484495 300.0247196128478
P   max/avg/min : 101332.9533109032 101322.2530885691 101308.7463192471
Prg max/avg/min : 101333.7483096822 101325.9201267786 101318.2560850785
U   max/avg/min : 0.8471066751253965 -0.0585504184934483 -0.9443128526811889
Prg max-min : 15.49222460365854
 
Iteration Number = 128

DILUPBiCG:  Solving for Ux, Initial residual = 0.4936975205425956, Final residual = 1.441081343730274e-05, No Iterations 3
DILUPBiCG:  Solving for Uy, Initial residual = 0.5906927274712986, Final residual = 0.0003798301945478657, No Iterations 2
DILUPBiCG:  Solving for Uz, Initial residual = 0.1911321314144544, Final residual = 6.950805934441203e-05, No Iterations 2
DILUPBiCG:  Solving for h, Initial residual = 0.004233229765353229, Final residual = 1.680259857873497e-06, No Iterations 5
GAMG:  Solving for p_rgh, Initial residual = 0.7204251946807071, Final residual = 0.07084381134020655, No Iterations 25
time step continuity errors : sum local = 6.101273497770204, global = 0.006763102270979766, cumulative = 0.04512850505354955
ExecutionTime = 185.29 s  ClockTime = 185 s
Inflow      : -1.357607900315356e-05 [kg/s]
Outflow     : -1.270714053717957e-05 [kg/s]
EnergyInflow  : -4.097260844868146 [W]
EnergyOutflow : -3.83506023257697 [W]
EnergyBalance : 0.2622006122911751 [W]
rho max/avg/min : 1.176303976527963 1.161859130930445 1.126431378766145
T   max/avg/min : 313.3141288862815 303.7795458195523 300.0255793061672
P   max/avg/min : 101329.9225718854 101320.770686124 101305.9664686509
Prg max/avg/min : 101330.8118641535 101324.4374025893 101315.406506353
U   max/avg/min : 0.8873954402308694 -0.05875967892698715 -1.051120774934881
Prg max-min : 15.40535780049686
 
Iteration Number = 129

DILUPBiCG:  Solving for Ux, Initial residual = 0.5012250980536703, Final residual = 0.0002586929897439847, No Iterations 2
DILUPBiCG:  Solving for Uy, Initial residual = 0.5883762652835988, Final residual = 2.917542830756471e-05, No Iterations 3
DILUPBiCG:  Solving for Uz, Initial residual = 0.1810913559840481, Final residual = 7.795171906308415e-05, No Iterations 2
DILUPBiCG:  Solving for h, Initial residual = 0.004197161381071624, Final residual = 2.406935189734318e-06, No Iterations 5
GAMG:  Solving for p_rgh, Initial residual = 0.7479303088551555, Final residual = 0.07427518159640881, No Iterations 27
time step continuity errors : sum local = 6.627943659492091, global = 0.007232989273119364, cumulative = 0.05236149432666891
ExecutionTime = 186.9 s  ClockTime = 187 s
Inflow      : -1.442120057719363e-05 [kg/s]
Outflow     : -1.349188998102695e-05 [kg/s]
EnergyInflow  : -4.352318601694416 [W]
EnergyOutflow : -4.071873063370262 [W]
EnergyBalance : 0.2804455383241544 [W]
rho max/avg/min : 1.176295939345886 1.161735900647215 1.124603264583191
T   max/avg/min : 313.8203270352286 303.8077030026486 300.0264723364375
P   max/avg/min : 101363.6383137536 101320.7560683109 101295.963879788
Prg max/avg/min : 101364.4854760978 101324.4224108891 101296.8105768139
U   max/avg/min : 1.103933725681569 -0.05789082827776808 -1.031134028938553
Prg max-min : 67.67489928395662
 
Iteration Number = 130

DILUPBiCG:  Solving for Ux, Initial residual = 0.4822277250656931, Final residual = 4.024509319750174e-05, No Iterations 3
DILUPBiCG:  Solving for Uy, Initial residual = 0.5773968378802388, Final residual = 2.3441713996886e-05, No Iterations 3
DILUPBiCG:  Solving for Uz, Initial residual = 0.1844939313112244, Final residual = 0.0001079346073293645, No Iterations 2
DILUPBiCG:  Solving for h, Initial residual = 0.004349673335945249, Final residual = 1.218364007623204e-06, No Iterations 6
GAMG:  Solving for p_rgh, Initial residual = 0.7531738153629792, Final residual = 2.24575974876271e+138, No Iterations 1000
time step continuity errors : sum local = 2.067013049774658e+140, global = 1.150286750432641e+137, cumulative = 1.150286750432641e+137
ExecutionTime = 216.4 s  ClockTime = 217 s
Inflow      : -1.477914075977453e+133 [kg/s]
Outflow     : -1.444970529230461e-05 [kg/s]
