/*---------------------------------------------------------------------------*\
| =========                 |                                                 |
| \\      /  F ield         | OpenFOAM: The Open Source CFD Toolbox           |
|  \\    /   O peration     | Version:  4.0                                   |
|   \\  /    A nd           | Web:      www.OpenFOAM.org                      |
|    \\/     M anipulation  |                                                 |
\*---------------------------------------------------------------------------*/
Build  : 4.0-665f1db4c1f1
Exec   : pupoBuoyantSimpleFoam
Date   : Oct 08 2016
Time   : 14:20:05
Host   : "FAB2000"
PID    : 26785
Case   : /home/pedro/Documents/ThesisProject/OpenFoam/validation7rod/justfluid
nProcs : 1
sigFpe : Enabling floating point exception trapping (FOAM_SIGFPE).
fileModificationChecking : Monitoring run-time modified files using timeStampMaster
allowSystemOperations : Allowing user-supplied system call operations

// * * * * * * * * * * * * * * * * * * * * * * * * * * * * * * * * * * * * * //
Create time

Create mesh for time = 0


SIMPLE: convergence criteria
    field p_rgh	 tolerance 0.0001
    field Uz	 tolerance 0.0001
    field h	 tolerance 0.0001

Reading thermophysical properties

Selecting thermodynamics package 
{
    type            heRhoThermo;
    mixture         pureMixture;
    transport       sutherland;
    thermo          hConst;
    equationOfState perfectGas;
    specie          specie;
    energy          sensibleEnthalpy;
}


Reading g

Reading hRef
Calculating field g.h

Selecting turbulence model type laminar
No MRF models present

Selecting radiationModel none
rho max/avg/min : 1.176411 1.1763447 1.1762784
T   max/avg/min : 300 300 300
P   max/avg/min : 101324.94 101319.23 101313.52
Prg max/avg/min : 101325 101325 101325
U   max/avg/min : 0 0 0
Prg max-min : 0.00065059763
 
No finite volume options present


Starting Iteration loop

Iteration Number = 1

DILUPBiCG:  Solving for Ux, Initial residual = 1, Final residual = 7.0917962e-05, No Iterations 3
DILUPBiCG:  Solving for Uy, Initial residual = 0.99999999, Final residual = 6.2956857e-05, No Iterations 3
DILUPBiCG:  Solving for Uz, Initial residual = 1, Final residual = 7.0300713e-05, No Iterations 3
DILUPBiCG:  Solving for h, Initial residual = 1, Final residual = 3.3435077e-06, No Iterations 2
GAMG:  Solving for p_rgh, Initial residual = 0.13956916, Final residual = 0.00078380592, No Iterations 1
time step continuity errors : sum local = 8.8223625e-06, global = -9.8568735e-08, cumulative = -9.8568735e-08
ExecutionTime = 1.1 s  ClockTime = 2 s
Inflow      : 4.1681468e-10 [kg/s]
Outflow     : 5.5393402e-12 [kg/s]
EnergyInflow  : 0.00012579467 [W]
EnergyOutflow : 1.6717729e-06 [W]
EnergyBalance : -0.0001241229 [W]
rho max/avg/min : 1.176411 1.1763321 1.175878
T   max/avg/min : 300.10215 300.00322 300
P   max/avg/min : 101324.94 101319.23 101313.52
Prg max/avg/min : 101325 101325 101325
U   max/avg/min : 2.9907495e-06 1.5106905e-09 -8.5607397e-08
Prg max-min : 0.0018327194
 
Iteration Number = 2

DILUPBiCG:  Solving for Ux, Initial residual = 0.4505259, Final residual = 0.00025458848, No Iterations 1
DILUPBiCG:  Solving for Uy, Initial residual = 0.44494964, Final residual = 0.00026556284, No Iterations 1
DILUPBiCG:  Solving for Uz, Initial residual = 0.41957001, Final residual = 0.00011747671, No Iterations 2
DILUPBiCG:  Solving for h, Initial residual = 0.28090237, Final residual = 6.8724156e-07, No Iterations 2
GAMG:  Solving for p_rgh, Initial residual = 0.31441922, Final residual = 0.0017340964, No Iterations 1
time step continuity errors : sum local = 3.155955e-05, global = -1.2615665e-07, cumulative = -2.2472539e-07
ExecutionTime = 1.77 s  ClockTime = 2 s
Inflow      : 5.405262e-10 [kg/s]
Outflow     : 1.4141025e-11 [kg/s]
EnergyInflow  : 0.00016313081 [W]
EnergyOutflow : 4.268072e-06 [W]
EnergyBalance : -0.00015886274 [W]
rho max/avg/min : 1.176411 1.1763205 1.1756353
T   max/avg/min : 300.16413 300.00618 300
P   max/avg/min : 101324.94 101319.23 101313.52
Prg max/avg/min : 101325 101325 101325
U   max/avg/min : 5.3564476e-06 4.1043131e-09 -4.2139005e-07
Prg max-min : 0.00444769
 
Iteration Number = 3

DILUPBiCG:  Solving for Ux, Initial residual = 0.22747013, Final residual = 0.00017400928, No Iterations 1
DILUPBiCG:  Solving for Uy, Initial residual = 0.22911639, Final residual = 0.00018731042, No Iterations 1
DILUPBiCG:  Solving for Uz, Initial residual = 0.35007156, Final residual = 0.00013629308, No Iterations 2
DILUPBiCG:  Solving for h, Initial residual = 0.17878082, Final residual = 3.1686498e-07, No Iterations 2
GAMG:  Solving for p_rgh, Initial residual = 0.25155172, Final residual = 0.0024602632, No Iterations 1
time step continuity errors : sum local = 5.7989339e-05, global = -1.3562421e-07, cumulative = -3.603496e-07
ExecutionTime = 2.45 s  ClockTime = 3 s
Inflow      : 5.9745517e-10 [kg/s]
Outflow     : 3.1566869e-11 [kg/s]
EnergyInflow  : 0.00018031197 [W]
EnergyOutflow : 9.5275993e-06 [W]
EnergyBalance : -0.00017078437 [W]
rho max/avg/min : 1.176411 1.1763091 1.1754528
T   max/avg/min : 300.21073 300.00909 300
P   max/avg/min : 101324.94 101319.23 101313.52
Prg max/avg/min : 101325 101325 101324.99
U   max/avg/min : 7.4176981e-06 7.894967e-09 -1.0908989e-06
Prg max-min : 0.0076512517
 
Iteration Number = 4

DILUPBiCG:  Solving for Ux, Initial residual = 0.092137144, Final residual = 4.3705675e-06, No Iterations 2
DILUPBiCG:  Solving for Uy, Initial residual = 0.096321071, Final residual = 5.5701931e-06, No Iterations 2
DILUPBiCG:  Solving for Uz, Initial residual = 0.30473037, Final residual = 0.00014364498, No Iterations 2
DILUPBiCG:  Solving for h, Initial residual = 0.13085429, Final residual = 0.00013083521, No Iterations 1
GAMG:  Solving for p_rgh, Initial residual = 0.16603218, Final residual = 0.0028146257, No Iterations 1
time step continuity errors : sum local = 8.0617838e-05, global = -1.0584955e-07, cumulative = -4.6619915e-07
ExecutionTime = 3.14 s  ClockTime = 4 s
Inflow      : 5.0175012e-10 [kg/s]
Outflow     : 6.0095781e-11 [kg/s]
EnergyInflow  : 0.00015142819 [W]
EnergyOutflow : 1.8138165e-05 [W]
EnergyBalance : -0.00013329002 [W]
rho max/avg/min : 1.176411 1.1762977 1.1752996
T   max/avg/min : 300.24984 300.01199 300
P   max/avg/min : 101324.94 101319.23 101313.52
Prg max/avg/min : 101325 101325 101324.99
U   max/avg/min : 9.0929408e-06 1.2879233e-08 -1.9857238e-06
Prg max-min : 0.010549376
 
Iteration Number = 5

DILUPBiCG:  Solving for Ux, Initial residual = 0.22056408, Final residual = 8.7438544e-06, No Iterations 2
DILUPBiCG:  Solving for Uy, Initial residual = 0.23288098, Final residual = 1.0633786e-05, No Iterations 2
DILUPBiCG:  Solving for Uz, Initial residual = 0.25752727, Final residual = 0.00014065066, No Iterations 2
DILUPBiCG:  Solving for h, Initial residual = 0.10378271, Final residual = 2.472186e-07, No Iterations 2
GAMG:  Solving for p_rgh, Initial residual = 0.082847055, Final residual = 0.0029744979, No Iterations 1
time step continuity errors : sum local = 9.7005271e-05, global = -5.4172163e-08, cumulative = -5.2037131e-07
ExecutionTime = 3.85 s  ClockTime = 4 s
Inflow      : 3.23776e-10 [kg/s]
Outflow     : 9.7744139e-11 [kg/s]
EnergyInflow  : 9.7715598e-05 [W]
EnergyOutflow : 2.9501132e-05 [W]
EnergyBalance : -6.8214466e-05 [W]
rho max/avg/min : 1.176411 1.1762862 1.1751639
T   max/avg/min : 300.28451 300.01492 300
P   max/avg/min : 101324.94 101319.23 101313.52
Prg max/avg/min : 101325 101325 101324.99
U   max/avg/min : 1.1140862e-05 1.8683558e-08 -3.1130324e-06
Prg max-min : 0.012550027
 
Iteration Number = 6

DILUPBiCG:  Solving for Ux, Initial residual = 0.43696285, Final residual = 1.8707569e-05, No Iterations 2
DILUPBiCG:  Solving for Uy, Initial residual = 0.43456706, Final residual = 1.8737892e-05, No Iterations 2
DILUPBiCG:  Solving for Uz, Initial residual = 0.21649445, Final residual = 0.00013111524, No Iterations 2
DILUPBiCG:  Solving for h, Initial residual = 0.08647813, Final residual = 2.5731236e-07, No Iterations 2
GAMG:  Solving for p_rgh, Initial residual = 0.048137777, Final residual = 0.003045983, No Iterations 1
time step continuity errors : sum local = 0.00010754976, global = 8.9744283e-09, cumulative = -5.1139688e-07
ExecutionTime = 4.56 s  ClockTime = 5 s
Inflow      : 1.0352753e-10 [kg/s]
Outflow     : 1.4097308e-10 [kg/s]
EnergyInflow  : 3.1244608e-05 [W]
EnergyOutflow : 4.254849e-05 [W]
EnergyBalance : 1.1303882e-05 [W]
rho max/avg/min : 1.176411 1.1762746 1.1750401
T   max/avg/min : 300.31614 300.01788 300
P   max/avg/min : 101324.94 101319.23 101313.52
Prg max/avg/min : 101325 101325 101324.99
U   max/avg/min : 1.2898212e-05 2.4871801e-08 -4.5264116e-06
Prg max-min : 0.013706616
 
Iteration Number = 7

DILUPBiCG:  Solving for Ux, Initial residual = 0.44646525, Final residual = 2.6745238e-05, No Iterations 2
DILUPBiCG:  Solving for Uy, Initial residual = 0.41245488, Final residual = 2.0963029e-05, No Iterations 2
DILUPBiCG:  Solving for Uz, Initial residual = 0.18495742, Final residual = 0.00011931869, No Iterations 2
DILUPBiCG:  Solving for h, Initial residual = 0.074311877, Final residual = 2.7296561e-07, No Iterations 2
GAMG:  Solving for p_rgh, Initial residual = 0.044172432, Final residual = 0.0030682401, No Iterations 1
time step continuity errors : sum local = 0.00011431945, global = 7.4602972e-08, cumulative = -4.3679391e-07
ExecutionTime = 5.27 s  ClockTime = 6 s
Inflow      : -1.2304593e-10 [kg/s]
Outflow     : 1.8823292e-10 [kg/s]
EnergyInflow  : -3.7135262e-05 [W]
EnergyOutflow : 5.6812557e-05 [W]
EnergyBalance : 9.394782e-05 [W]
rho max/avg/min : 1.176411 1.1762629 1.1749251
T   max/avg/min : 300.34554 300.02088 300
P   max/avg/min : 101324.94 101319.23 101313.52
Prg max/avg/min : 101325 101325 101324.99
U   max/avg/min : 1.4801899e-05 3.1115642e-08 -6.0544415e-06
Prg max-min : 0.014383415
 
Iteration Number = 8

DILUPBiCG:  Solving for Ux, Initial residual = 0.24523395, Final residual = 2.5082098e-05, No Iterations 2
DILUPBiCG:  Solving for Uy, Initial residual = 0.21213207, Final residual = 1.6003369e-05, No Iterations 2
DILUPBiCG:  Solving for Uz, Initial residual = 0.16102969, Final residual = 0.0001084108, No Iterations 2
DILUPBiCG:  Solving for h, Initial residual = 0.065322423, Final residual = 2.9254295e-07, No Iterations 2
GAMG:  Solving for p_rgh, Initial residual = 0.040680026, Final residual = 0.0030871965, No Iterations 1
time step continuity errors : sum local = 0.00012022729, global = 1.3249137e-07, cumulative = -3.0430254e-07
ExecutionTime = 5.97 s  ClockTime = 6 s
Inflow      : -3.1953227e-10 [kg/s]
Outflow     : 2.3328435e-10 [kg/s]
EnergyInflow  : -9.643484e-05 [W]
EnergyOutflow : 7.0410332e-05 [W]
EnergyBalance : 0.00016684517 [W]
rho max/avg/min : 1.176411 1.176251 1.174817
T   max/avg/min : 300.37319 300.02391 300
P   max/avg/min : 101324.94 101319.23 101313.52
Prg max/avg/min : 101325 101325 101324.99
U   max/avg/min : 1.6849804e-05 3.7302796e-08 -7.6307429e-06
Prg max-min : 0.014920685
 
Iteration Number = 9

DILUPBiCG:  Solving for Ux, Initial residual = 0.062109967, Final residual = 2.0698429e-05, No Iterations 2
DILUPBiCG:  Solving for Uy, Initial residual = 0.055552428, Final residual = 1.0301191e-05, No Iterations 2
DILUPBiCG:  Solving for Uz, Initial residual = 0.14282183, Final residual = 9.947204e-05, No Iterations 2
DILUPBiCG:  Solving for h, Initial residual = 0.058396462, Final residual = 3.1074163e-07, No Iterations 2
GAMG:  Solving for p_rgh, Initial residual = 0.03366863, Final residual = 0.0031135116, No Iterations 1
time step continuity errors : sum local = 0.00012735204, global = 2.0905989e-07, cumulative = -9.5242651e-08
ExecutionTime = 6.66 s  ClockTime = 7 s
Inflow      : -6.0031997e-10 [kg/s]
Outflow     : 2.7197668e-10 [kg/s]
EnergyInflow  : -0.00018117657 [W]
EnergyOutflow : 8.2089154e-05 [W]
EnergyBalance : 0.00026326572 [W]
rho max/avg/min : 1.176411 1.176239 1.1747144
T   max/avg/min : 300.39943 300.02697 300
P   max/avg/min : 101324.94 101319.23 101313.52
Prg max/avg/min : 101325 101325 101324.98
U   max/avg/min : 1.8746245e-05 4.3531018e-08 -9.2536295e-06
Prg max-min : 0.01563273
 
Iteration Number = 10

DILUPBiCG:  Solving for Ux, Initial residual = 0.14507007, Final residual = 2.3720623e-05, No Iterations 2
DILUPBiCG:  Solving for Uy, Initial residual = 0.14173699, Final residual = 1.1341335e-05, No Iterations 2
DILUPBiCG:  Solving for Uz, Initial residual = 0.1294338, Final residual = 9.2247854e-05, No Iterations 2
DILUPBiCG:  Solving for h, Initial residual = 0.052881815, Final residual = 3.3001635e-07, No Iterations 2
GAMG:  Solving for p_rgh, Initial residual = 0.027891312, Final residual = 0.001741108, No Iterations 2
time step continuity errors : sum local = 7.5389817e-05, global = 3.5911409e-07, cumulative = 2.6387144e-07
ExecutionTime = 7.37 s  ClockTime = 8 s
Inflow      : -1.1968983e-09 [kg/s]
Outflow     : 3.0149543e-10 [kg/s]
EnergyInflow  : -0.0003612239 [W]
EnergyOutflow : 9.0999641e-05 [W]
EnergyBalance : 0.00045222354 [W]
rho max/avg/min : 1.176411 1.1762269 1.1746163
T   max/avg/min : 300.42454 300.03007 300
P   max/avg/min : 101324.94 101319.23 101313.52
Prg max/avg/min : 101325 101325 101324.98
U   max/avg/min : 2.0702411e-05 5.0162062e-08 -1.0934274e-05
Prg max-min : 0.01665561
 
Iteration Number = 11

DILUPBiCG:  Solving for Ux, Initial residual = 0.1159184, Final residual = 2.0179773e-05, No Iterations 2
DILUPBiCG:  Solving for Uy, Initial residual = 0.11839597, Final residual = 1.5774326e-05, No Iterations 2
DILUPBiCG:  Solving for Uz, Initial residual = 0.11824978, Final residual = 8.2772381e-05, No Iterations 2
DILUPBiCG:  Solving for h, Initial residual = 0.048379189, Final residual = 3.7726019e-07, No Iterations 2
GAMG:  Solving for p_rgh, Initial residual = 0.026174286, Final residual = 0.0014684204, No Iterations 2
time step continuity errors : sum local = 6.7770525e-05, global = 4.9651888e-07, cumulative = 7.6039032e-07
ExecutionTime = 8.1 s  ClockTime = 9 s
Inflow      : -1.7801741e-09 [kg/s]
Outflow     : 2.9153732e-10 [kg/s]
EnergyInflow  : -0.00053725654 [W]
EnergyOutflow : 8.7996282e-05 [W]
EnergyBalance : 0.00062525282 [W]
rho max/avg/min : 1.176411 1.1762146 1.1745222
T   max/avg/min : 300.44858 300.03321 300
P   max/avg/min : 101324.94 101319.23 101313.52
Prg max/avg/min : 101325 101325 101324.98
U   max/avg/min : 2.2913225e-05 5.757918e-08 -1.3309059e-05
Prg max-min : 0.017746831
 
Iteration Number = 12

DILUPBiCG:  Solving for Ux, Initial residual = 0.054449143, Final residual = 1.8974558e-05, No Iterations 2
DILUPBiCG:  Solving for Uy, Initial residual = 0.056635198, Final residual = 1.9113664e-05, No Iterations 2
DILUPBiCG:  Solving for Uz, Initial residual = 0.11099185, Final residual = 7.7067793e-05, No Iterations 2
DILUPBiCG:  Solving for h, Initial residual = 0.0446437, Final residual = 3.9918362e-07, No Iterations 2
GAMG:  Solving for p_rgh, Initial residual = 0.023421759, Final residual = 0.0012237024, No Iterations 2
time step continuity errors : sum local = 6.0158512e-05, global = 6.5234003e-07, cumulative = 1.4127304e-06
ExecutionTime = 8.8 s  ClockTime = 9 s
Inflow      : -2.4926409e-09 [kg/s]
Outflow     : 2.2923001e-10 [kg/s]
EnergyInflow  : -0.00075227901 [W]
EnergyOutflow : 6.9194233e-05 [W]
EnergyBalance : 0.00082147324 [W]
rho max/avg/min : 1.176411 1.1762022 1.1744314
T   max/avg/min : 300.47179 300.03638 300
P   max/avg/min : 101324.94 101319.23 101313.52
Prg max/avg/min : 101325 101325 101324.98
U   max/avg/min : 2.5040579e-05 6.6007853e-08 -1.6162913e-05
Prg max-min : 0.018794999
 
Iteration Number = 13

DILUPBiCG:  Solving for Ux, Initial residual = 0.077102385, Final residual = 1.6164737e-05, No Iterations 2
DILUPBiCG:  Solving for Uy, Initial residual = 0.072145587, Final residual = 1.7632625e-05, No Iterations 2
DILUPBiCG:  Solving for Uz, Initial residual = 0.10496029, Final residual = 7.3598835e-05, No Iterations 2
DILUPBiCG:  Solving for h, Initial residual = 0.041479061, Final residual = 4.2054713e-07, No Iterations 2
GAMG:  Solving for p_rgh, Initial residual = 0.020604714, Final residual = 0.0011352692, No Iterations 2
time step continuity errors : sum local = 5.9101354e-05, global = 8.2353903e-07, cumulative = 2.2362694e-06
ExecutionTime = 9.52 s  ClockTime = 10 s
Inflow      : -3.3284534e-09 [kg/s]
Outflow     : 1.0774063e-10 [kg/s]
EnergyInflow  : -0.0010045272 [W]
EnergyOutflow : 3.253136e-05 [W]
EnergyBalance : 0.0010370586 [W]
rho max/avg/min : 1.176411 1.1761897 1.1743436
T   max/avg/min : 300.49427 300.03958 300
P   max/avg/min : 101324.94 101319.23 101313.52
Prg max/avg/min : 101325 101325 101324.98
U   max/avg/min : 2.7077992e-05 7.5700551e-08 -1.8770344e-05
Prg max-min : 0.019705205
 
Iteration Number = 14

DILUPBiCG:  Solving for Ux, Initial residual = 0.12410085, Final residual = 1.7352194e-05, No Iterations 2
DILUPBiCG:  Solving for Uy, Initial residual = 0.11559865, Final residual = 1.9984867e-05, No Iterations 2
DILUPBiCG:  Solving for Uz, Initial residual = 0.099449922, Final residual = 7.0971313e-05, No Iterations 2
DILUPBiCG:  Solving for h, Initial residual = 0.038772975, Final residual = 4.4419755e-07, No Iterations 2
GAMG:  Solving for p_rgh, Initial residual = 0.018447273, Final residual = 0.0011396481, No Iterations 2
time step continuity errors : sum local = 6.231689e-05, global = 1.0122098e-06, cumulative = 3.2484792e-06
ExecutionTime = 10.27 s  ClockTime = 11 s
Inflow      : -4.2973601e-09 [kg/s]
Outflow     : -7.3942519e-11 [kg/s]
EnergyInflow  : -0.0012969433 [W]
EnergyOutflow : -2.2297643e-05 [W]
EnergyBalance : 0.0012746456 [W]
rho max/avg/min : 1.176411 1.176177 1.1742584
T   max/avg/min : 300.51608 300.04281 300
P   max/avg/min : 101324.94 101319.23 101313.52
Prg max/avg/min : 101325 101325 101324.98
U   max/avg/min : 2.947049e-05 8.6949147e-08 -2.1097341e-05
Prg max-min : 0.020487344
 
Iteration Number = 15

DILUPBiCG:  Solving for Ux, Initial residual = 0.12154964, Final residual = 1.607104e-05, No Iterations 2
DILUPBiCG:  Solving for Uy, Initial residual = 0.11036749, Final residual = 1.2223617e-05, No Iterations 2
DILUPBiCG:  Solving for Uz, Initial residual = 0.094406147, Final residual = 6.7739126e-05, No Iterations 2
DILUPBiCG:  Solving for h, Initial residual = 0.036423556, Final residual = 4.7128081e-07, No Iterations 2
GAMG:  Solving for p_rgh, Initial residual = 0.0170392, Final residual = 0.0011913539, No Iterations 2
time step continuity errors : sum local = 6.8126717e-05, global = 1.2228736e-06, cumulative = 4.4713528e-06
ExecutionTime = 11.07 s  ClockTime = 12 s
Inflow      : -5.4229799e-09 [kg/s]
Outflow     : -3.2057333e-10 [kg/s]
EnergyInflow  : -0.0016366553 [W]
EnergyOutflow : -9.6727471e-05 [W]
EnergyBalance : 0.0015399279 [W]
rho max/avg/min : 1.176411 1.1761642 1.1741754
T   max/avg/min : 300.53731 300.04608 300
P   max/avg/min : 101324.94 101319.23 101313.52
Prg max/avg/min : 101325 101325 101324.98
U   max/avg/min : 3.1828075e-05 1.0004085e-07 -2.2911685e-05
Prg max-min : 0.02121266
 
Iteration Number = 16

DILUPBiCG:  Solving for Ux, Initial residual = 0.078146175, Final residual = 1.8225349e-05, No Iterations 2
DILUPBiCG:  Solving for Uy, Initial residual = 0.07056585, Final residual = 1.7307777e-05, No Iterations 2
DILUPBiCG:  Solving for Uz, Initial residual = 0.089910764, Final residual = 6.3914562e-05, No Iterations 2
DILUPBiCG:  Solving for h, Initial residual = 0.034368654, Final residual = 5.0520915e-07, No Iterations 2
GAMG:  Solving for p_rgh, Initial residual = 0.016125863, Final residual = 0.0012856682, No Iterations 2
time step continuity errors : sum local = 7.6713245e-05, global = 1.4527379e-06, cumulative = 5.9240907e-06
ExecutionTime = 11.93 s  ClockTime = 12 s
Inflow      : -6.683104e-09 [kg/s]
Outflow     : -6.2159494e-10 [kg/s]
EnergyInflow  : -0.0020169608 [W]
EnergyOutflow : -0.00018757203 [W]
EnergyBalance : 0.0018293887 [W]
rho max/avg/min : 1.176411 1.1761513 1.1740946
T   max/avg/min : 300.558 300.04938 300
P   max/avg/min : 101324.94 101319.23 101313.52
Prg max/avg/min : 101325 101325 101324.98
U   max/avg/min : 3.4119511e-05 1.1530797e-07 -2.4289115e-05
Prg max-min : 0.021926521
 
Iteration Number = 17

DILUPBiCG:  Solving for Ux, Initial residual = 0.03356605, Final residual = 1.8341012e-05, No Iterations 2
DILUPBiCG:  Solving for Uy, Initial residual = 0.034396868, Final residual = 2.1752541e-05, No Iterations 2
DILUPBiCG:  Solving for Uz, Initial residual = 0.086233713, Final residual = 6.0639056e-05, No Iterations 2
DILUPBiCG:  Solving for h, Initial residual = 0.032549633, Final residual = 5.4101983e-07, No Iterations 2
GAMG:  Solving for p_rgh, Initial residual = 0.015096365, Final residual = 0.0013848393, No Iterations 2
time step continuity errors : sum local = 8.6308291e-05, global = 1.7131991e-06, cumulative = 7.6372898e-06
ExecutionTime = 12.72 s  ClockTime = 13 s
Inflow      : -8.1073614e-09 [kg/s]
Outflow     : -9.5908496e-10 [kg/s]
EnergyInflow  : -0.0024468017 [W]
EnergyOutflow : -0.00028942232 [W]
EnergyBalance : 0.0021573793 [W]
rho max/avg/min : 1.176411 1.1761382 1.1740156
T   max/avg/min : 300.57822 300.05271 300
P   max/avg/min : 101324.94 101319.23 101313.52
Prg max/avg/min : 101325 101325 101324.98
U   max/avg/min : 3.6613016e-05 1.3303392e-07 -2.5092412e-05
Prg max-min : 0.022675286
 
Iteration Number = 18

DILUPBiCG:  Solving for Ux, Initial residual = 0.034753289, Final residual = 1.6734067e-05, No Iterations 2
DILUPBiCG:  Solving for Uy, Initial residual = 0.037677465, Final residual = 2.2824093e-05, No Iterations 2
DILUPBiCG:  Solving for Uz, Initial residual = 0.083211331, Final residual = 5.7986408e-05, No Iterations 2
DILUPBiCG:  Solving for h, Initial residual = 0.03093276, Final residual = 5.7915712e-07, No Iterations 2
GAMG:  Solving for p_rgh, Initial residual = 0.014207222, Final residual = 0.00089009495, No Iterations 3
time step continuity errors : sum local = 5.7948408e-05, global = 2.0259586e-06, cumulative = 9.6632484e-06
ExecutionTime = 13.59 s  ClockTime = 14 s
Inflow      : -9.7583477e-09 [kg/s]
Outflow     : -1.3050912e-09 [kg/s]
EnergyInflow  : -0.0029450693 [W]
EnergyOutflow : -0.00039384233 [W]
EnergyBalance : 0.002551227 [W]
rho max/avg/min : 1.176411 1.1761251 1.1739384
T   max/avg/min : 300.598 300.05608 300
P   max/avg/min : 101324.94 101319.23 101313.52
Prg max/avg/min : 101325 101325 101324.98
U   max/avg/min : 3.9222602e-05 1.5472598e-07 -2.5078201e-05
Prg max-min : 0.023480436
 
Iteration Number = 19

DILUPBiCG:  Solving for Ux, Initial residual = 0.03338363, Final residual = 1.156848e-05, No Iterations 2
DILUPBiCG:  Solving for Uy, Initial residual = 0.034658793, Final residual = 1.1854303e-05, No Iterations 2
DILUPBiCG:  Solving for Uz, Initial residual = 0.08202299, Final residual = 5.8446206e-05, No Iterations 2
DILUPBiCG:  Solving for h, Initial residual = 0.02948805, Final residual = 6.4766537e-07, No Iterations 2
GAMG:  Solving for p_rgh, Initial residual = 0.013324361, Final residual = 0.0012914256, No Iterations 2
time step continuity errors : sum local = 8.7813912e-05, global = 2.3349915e-06, cumulative = 1.199824e-05
ExecutionTime = 14.4 s  ClockTime = 15 s
Inflow      : -1.1370468e-08 [kg/s]
Outflow     : -1.6277802e-09 [kg/s]
EnergyInflow  : -0.0034316072 [W]
EnergyOutflow : -0.00049122468 [W]
EnergyBalance : 0.0029403825 [W]
rho max/avg/min : 1.176411 1.1761118 1.1738627
T   max/avg/min : 300.61738 300.05947 300
P   max/avg/min : 101324.94 101319.23 101313.52
Prg max/avg/min : 101325 101325 101324.98
U   max/avg/min : 4.1794595e-05 1.8031604e-07 -2.4273374e-05
Prg max-min : 0.02423444
 
Iteration Number = 20

DILUPBiCG:  Solving for Ux, Initial residual = 0.029831542, Final residual = 1.0218756e-05, No Iterations 2
DILUPBiCG:  Solving for Uy, Initial residual = 0.029416041, Final residual = 8.6960454e-06, No Iterations 2
DILUPBiCG:  Solving for Uz, Initial residual = 0.079921284, Final residual = 5.7514822e-05, No Iterations 2
DILUPBiCG:  Solving for h, Initial residual = 0.028184115, Final residual = 6.2699938e-07, No Iterations 2
GAMG:  Solving for p_rgh, Initial residual = 0.012563897, Final residual = 0.00078094668, No Iterations 3
time step continuity errors : sum local = 5.540717e-05, global = 2.7242324e-06, cumulative = 1.4722472e-05
ExecutionTime = 15.13 s  ClockTime = 16 s
Inflow      : -1.327321e-08 [kg/s]
Outflow     : -1.9064247e-09 [kg/s]
EnergyInflow  : -0.0040058547 [W]
EnergyOutflow : -0.00057531387 [W]
EnergyBalance : 0.0034305408 [W]
rho max/avg/min : 1.176411 1.1760984 1.1737884
T   max/avg/min : 300.63639 300.06289 300
P   max/avg/min : 101324.94 101319.23 101313.52
Prg max/avg/min : 101325 101325 101324.98
U   max/avg/min : 4.4349283e-05 2.1040875e-07 -2.3294423e-05
Prg max-min : 0.0249938
 
Iteration Number = 21

DILUPBiCG:  Solving for Ux, Initial residual = 0.040243015, Final residual = 1.2440916e-05, No Iterations 2
DILUPBiCG:  Solving for Uy, Initial residual = 0.035604753, Final residual = 1.3212346e-05, No Iterations 2
DILUPBiCG:  Solving for Uz, Initial residual = 0.079801111, Final residual = 6.047058e-05, No Iterations 2
DILUPBiCG:  Solving for h, Initial residual = 0.027000438, Final residual = 7.1186052e-07, No Iterations 2
GAMG:  Solving for p_rgh, Initial residual = 0.011846304, Final residual = 0.0011613614, No Iterations 2
time step continuity errors : sum local = 8.5738203e-05, global = 3.1387646e-06, cumulative = 1.7861237e-05
ExecutionTime = 15.86 s  ClockTime = 16 s
Inflow      : -1.5207484e-08 [kg/s]
Outflow     : -2.1110745e-09 [kg/s]
EnergyInflow  : -0.0045896185 [W]
EnergyOutflow : -0.0006370709 [W]
EnergyBalance : 0.0039525476 [W]
rho max/avg/min : 1.176411 1.1760849 1.1737155
T   max/avg/min : 300.65506 300.06634 300
P   max/avg/min : 101324.94 101319.23 101313.52
Prg max/avg/min : 101325 101325 101324.97
U   max/avg/min : 4.7230613e-05 2.447918e-07 -2.1864876e-05
Prg max-min : 0.025682441
 
Iteration Number = 22

DILUPBiCG:  Solving for Ux, Initial residual = 0.046617026, Final residual = 1.2175578e-05, No Iterations 2
DILUPBiCG:  Solving for Uy, Initial residual = 0.038617722, Final residual = 1.0055023e-05, No Iterations 2
DILUPBiCG:  Solving for Uz, Initial residual = 0.077646228, Final residual = 5.9019208e-05, No Iterations 2
DILUPBiCG:  Solving for h, Initial residual = 0.025922996, Final residual = 6.5972695e-07, No Iterations 2
GAMG:  Solving for p_rgh, Initial residual = 0.011375286, Final residual = 0.00072543712, No Iterations 3
time step continuity errors : sum local = 5.5606083e-05, global = 3.6415085e-06, cumulative = 2.1502745e-05
ExecutionTime = 16.6 s  ClockTime = 17 s
Inflow      : -1.7431889e-08 [kg/s]
Outflow     : -2.2377941e-09 [kg/s]
EnergyInflow  : -0.005260944 [W]
EnergyOutflow : -0.00067530792 [W]
EnergyBalance : 0.004585636 [W]
rho max/avg/min : 1.176411 1.1760712 1.1736439
T   max/avg/min : 300.67342 300.06982 300
P   max/avg/min : 101324.94 101319.23 101313.52
Prg max/avg/min : 101325 101325 101324.97
U   max/avg/min : 5.0093599e-05 2.8408642e-07 -1.9867619e-05
Prg max-min : 0.026399638
 
Iteration Number = 23

DILUPBiCG:  Solving for Ux, Initial residual = 0.042299157, Final residual = 1.1746129e-05, No Iterations 2
DILUPBiCG:  Solving for Uy, Initial residual = 0.034538709, Final residual = 1.0675648e-05, No Iterations 2
DILUPBiCG:  Solving for Uz, Initial residual = 0.077345042, Final residual = 6.1091995e-05, No Iterations 2
DILUPBiCG:  Solving for h, Initial residual = 0.024935058, Final residual = 7.8696538e-07, No Iterations 2
GAMG:  Solving for p_rgh, Initial residual = 0.010935411, Final residual = 0.00070394123, No Iterations 3
time step continuity errors : sum local = 5.5965876e-05, global = 4.1961854e-06, cumulative = 2.5698931e-05
ExecutionTime = 17.33 s  ClockTime = 18 s
Inflow      : -1.9785439e-08 [kg/s]
Outflow     : -2.2769712e-09 [kg/s]
EnergyInflow  : -0.0059712456 [W]
EnergyOutflow : -0.00068712396 [W]
EnergyBalance : 0.0052841217 [W]
rho max/avg/min : 1.176411 1.1760575 1.1735734
T   max/avg/min : 300.69148 300.07333 300
P   max/avg/min : 101324.94 101319.23 101313.52
Prg max/avg/min : 101325 101325 101324.97
U   max/avg/min : 5.2942368e-05 3.2977531e-07 -1.726295e-05
Prg max-min : 0.02710487
 
Iteration Number = 24

DILUPBiCG:  Solving for Ux, Initial residual = 0.034056559, Final residual = 1.0684292e-05, No Iterations 2
DILUPBiCG:  Solving for Uy, Initial residual = 0.029199776, Final residual = 8.9922673e-06, No Iterations 2
DILUPBiCG:  Solving for Uz, Initial residual = 0.076932654, Final residual = 6.2519905e-05, No Iterations 2
DILUPBiCG:  Solving for h, Initial residual = 0.024032253, Final residual = 8.2622386e-07, No Iterations 2
GAMG:  Solving for p_rgh, Initial residual = 0.010534823, Final residual = 0.00068326583, No Iterations 3
time step continuity errors : sum local = 5.6376176e-05, global = 4.8009118e-06, cumulative = 3.0499843e-05
ExecutionTime = 18.07 s  ClockTime = 19 s
Inflow      : -2.2273685e-08 [kg/s]
Outflow     : -2.2420124e-09 [kg/s]
EnergyInflow  : -0.0067221982 [W]
EnergyOutflow : -0.00067656507 [W]
EnergyBalance : 0.0060456331 [W]
rho max/avg/min : 1.176411 1.1760437 1.173504
T   max/avg/min : 300.70926 300.07687 300
P   max/avg/min : 101324.94 101319.23 101313.52
Prg max/avg/min : 101325 101325 101324.97
U   max/avg/min : 5.5967032e-05 3.8233536e-07 -1.4738216e-05
Prg max-min : 0.027792854
 
Iteration Number = 25

DILUPBiCG:  Solving for Ux, Initial residual = 0.02731698, Final residual = 9.727628e-06, No Iterations 2
DILUPBiCG:  Solving for Uy, Initial residual = 0.025076114, Final residual = 7.7717615e-06, No Iterations 2
DILUPBiCG:  Solving for Uz, Initial residual = 0.075948253, Final residual = 6.2543371e-05, No Iterations 2
DILUPBiCG:  Solving for h, Initial residual = 0.023199922, Final residual = 8.6671725e-07, No Iterations 2
GAMG:  Solving for p_rgh, Initial residual = 0.010150013, Final residual = 0.00068973, No Iterations 3
time step continuity errors : sum local = 5.8917567e-05, global = 3.8489564e-06, cumulative = 3.4348799e-05
ExecutionTime = 18.8 s  ClockTime = 19 s
Inflow      : -1.8212387e-08 [kg/s]
Outflow     : -2.152722e-09 [kg/s]
EnergyInflow  : -0.0054964984 [W]
EnergyOutflow : -0.00064960808 [W]
EnergyBalance : 0.0048468904 [W]
rho max/avg/min : 1.176411 1.1760297 1.1734357
T   max/avg/min : 300.72678 300.08044 300
P   max/avg/min : 101324.94 101319.23 101313.52
Prg max/avg/min : 101325 101325 101324.97
U   max/avg/min : 5.9182684e-05 4.4650782e-07 -1.3030788e-05
Prg max-min : 0.028470675
 
Iteration Number = 26

DILUPBiCG:  Solving for Ux, Initial residual = 0.02559137, Final residual = 1.0630379e-05, No Iterations 2
DILUPBiCG:  Solving for Uy, Initial residual = 0.023898671, Final residual = 8.4492028e-06, No Iterations 2
DILUPBiCG:  Solving for Uz, Initial residual = 0.073803715, Final residual = 5.8747624e-05, No Iterations 2
DILUPBiCG:  Solving for h, Initial residual = 0.022431047, Final residual = 9.1130286e-07, No Iterations 2
GAMG:  Solving for p_rgh, Initial residual = 0.0097870058, Final residual = 0.00069576688, No Iterations 3
time step continuity errors : sum local = 6.1504127e-05, global = 4.1003162e-06, cumulative = 3.8449115e-05
ExecutionTime = 19.54 s  ClockTime = 20 s
Inflow      : -1.9134795e-08 [kg/s]
Outflow     : -2.026338e-09 [kg/s]
EnergyInflow  : -0.005774881 [W]
EnergyOutflow : -0.00061145537 [W]
EnergyBalance : 0.0051634256 [W]
rho max/avg/min : 1.176411 1.1760156 1.1733682
T   max/avg/min : 300.74406 300.08403 300
P   max/avg/min : 101324.94 101319.23 101313.52
Prg max/avg/min : 101325 101325 101324.97
U   max/avg/min : 6.2408633e-05 5.256742e-07 -1.2339518e-05
Prg max-min : 0.029140134
 
Iteration Number = 27

DILUPBiCG:  Solving for Ux, Initial residual = 0.026587476, Final residual = 1.2621937e-05, No Iterations 2
DILUPBiCG:  Solving for Uy, Initial residual = 0.02444944, Final residual = 9.8697315e-06, No Iterations 2
DILUPBiCG:  Solving for Uz, Initial residual = 0.071532138, Final residual = 5.4451714e-05, No Iterations 2
DILUPBiCG:  Solving for h, Initial residual = 0.021715115, Final residual = 9.6126202e-07, No Iterations 2
GAMG:  Solving for p_rgh, Initial residual = 0.0094944722, Final residual = 0.00071271037, No Iterations 3
time step continuity errors : sum local = 6.5134753e-05, global = 4.281e-06, cumulative = 4.2730115e-05
ExecutionTime = 20.27 s  ClockTime = 21 s
Inflow      : -1.9737666e-08 [kg/s]
Outflow     : -1.8753105e-09 [kg/s]
EnergyInflow  : -0.0059568275 [W]
EnergyOutflow : -0.00056586435 [W]
EnergyBalance : 0.0053909632 [W]
rho max/avg/min : 1.176411 1.1760015 1.1733017
T   max/avg/min : 300.76111 300.08765 300
P   max/avg/min : 101324.94 101319.23 101313.52
Prg max/avg/min : 101325 101325 101324.97
U   max/avg/min : 6.5651803e-05 6.2015242e-07 -1.307409e-05
Prg max-min : 0.02979992
 
Iteration Number = 28

DILUPBiCG:  Solving for Ux, Initial residual = 0.028304475, Final residual = 1.5041937e-05, No Iterations 2
DILUPBiCG:  Solving for Uy, Initial residual = 0.02529719, Final residual = 1.0145214e-05, No Iterations 2
DILUPBiCG:  Solving for Uz, Initial residual = 0.069152789, Final residual = 4.9906428e-05, No Iterations 2
DILUPBiCG:  Solving for h, Initial residual = 0.021050028, Final residual = 1.0164709e-06, No Iterations 2
GAMG:  Solving for p_rgh, Initial residual = 0.0092445596, Final residual = 0.00073468237, No Iterations 3
time step continuity errors : sum local = 6.9360589e-05, global = 4.3965046e-06, cumulative = 4.712662e-05
ExecutionTime = 21.01 s  ClockTime = 22 s
Inflow      : -2.0045517e-08 [kg/s]
Outflow     : -1.701222e-09 [kg/s]
EnergyInflow  : -0.006049737 [W]
EnergyOutflow : -0.00051331246 [W]
EnergyBalance : 0.0055364246 [W]
rho max/avg/min : 1.176411 1.1759872 1.1732361
T   max/avg/min : 300.77794 300.09129 300
P   max/avg/min : 101324.94 101319.23 101313.52
Prg max/avg/min : 101325 101325 101324.97
U   max/avg/min : 6.9267571e-05 7.3035679e-07 -1.3945343e-05
Prg max-min : 0.030446417
 
Iteration Number = 29

DILUPBiCG:  Solving for Ux, Initial residual = 0.029960331, Final residual = 1.6840191e-05, No Iterations 2
DILUPBiCG:  Solving for Uy, Initial residual = 0.026298095, Final residual = 9.7381698e-06, No Iterations 2
DILUPBiCG:  Solving for Uz, Initial residual = 0.067017431, Final residual = 4.563018e-05, No Iterations 2
DILUPBiCG:  Solving for h, Initial residual = 0.020427917, Final residual = 1.0768096e-06, No Iterations 2
GAMG:  Solving for p_rgh, Initial residual = 0.0090377843, Final residual = 0.00075704574, No Iterations 3
time step continuity errors : sum local = 7.3725324e-05, global = 4.4998955e-06, cumulative = 5.1626515e-05
ExecutionTime = 21.75 s  ClockTime = 22 s
Inflow      : -2.0273574e-08 [kg/s]
Outflow     : -1.497884e-09 [kg/s]
EnergyInflow  : -0.0061185647 [W]
EnergyOutflow : -0.00045193196 [W]
EnergyBalance : 0.0056666328 [W]
rho max/avg/min : 1.176411 1.1759729 1.1731712
T   max/avg/min : 300.79456 300.09496 300
P   max/avg/min : 101324.94 101319.23 101313.52
Prg max/avg/min : 101325 101325 101324.97
U   max/avg/min : 7.2945567e-05 8.5671805e-07 -1.4952751e-05
Prg max-min : 0.031078758
 
Iteration Number = 30

DILUPBiCG:  Solving for Ux, Initial residual = 0.0305104, Final residual = 1.8149658e-05, No Iterations 2
DILUPBiCG:  Solving for Uy, Initial residual = 0.02661236, Final residual = 8.9595435e-06, No Iterations 2
DILUPBiCG:  Solving for Uz, Initial residual = 0.065114454, Final residual = 4.1854243e-05, No Iterations 2
DILUPBiCG:  Solving for h, Initial residual = 0.01984771, Final residual = 1.1401258e-06, No Iterations 2
GAMG:  Solving for p_rgh, Initial residual = 0.0088497554, Final residual = 0.00077433513, No Iterations 3
time step continuity errors : sum local = 7.7780517e-05, global = 4.6079674e-06, cumulative = 5.6234483e-05
ExecutionTime = 22.48 s  ClockTime = 23 s
Inflow      : -2.0475145e-08 [kg/s]
Outflow     : -1.2485278e-09 [kg/s]
EnergyInflow  : -0.0061793988 [W]
EnergyOutflow : -0.00037666195 [W]
EnergyBalance : 0.0058027369 [W]
rho max/avg/min : 1.176411 1.1759584 1.1731072
T   max/avg/min : 300.81099 300.09866 300
P   max/avg/min : 101324.94 101319.23 101313.52
Prg max/avg/min : 101325 101325 101324.97
U   max/avg/min : 7.667161e-05 9.9972152e-07 -1.5796498e-05
Prg max-min : 0.03169662
 
Iteration Number = 31

DILUPBiCG:  Solving for Ux, Initial residual = 0.029238988, Final residual = 1.8329734e-05, No Iterations 2
DILUPBiCG:  Solving for Uy, Initial residual = 0.025844319, Final residual = 9.0324892e-06, No Iterations 2
DILUPBiCG:  Solving for Uz, Initial residual = 0.063519731, Final residual = 3.8583776e-05, No Iterations 2
DILUPBiCG:  Solving for h, Initial residual = 0.019304931, Final residual = 1.20355e-06, No Iterations 2
GAMG:  Solving for p_rgh, Initial residual = 0.0086723518, Final residual = 0.00078777969, No Iterations 3
time step continuity errors : sum local = 8.1518447e-05, global = 4.7273184e-06, cumulative = 6.0961801e-05
ExecutionTime = 23.22 s  ClockTime = 24 s
Inflow      : -2.066262e-08 [kg/s]
Outflow     : -9.3801329e-10 [kg/s]
EnergyInflow  : -0.0062359786 [W]
EnergyOutflow : -0.00028293304 [W]
EnergyBalance : 0.0059530456 [W]
rho max/avg/min : 1.176411 1.1759438 1.1730438
T   max/avg/min : 300.82724 300.10238 300
P   max/avg/min : 101324.94 101319.23 101313.52
Prg max/avg/min : 101325 101325 101324.97
U   max/avg/min : 8.0633101e-05 1.1598953e-06 -1.6496273e-05
Prg max-min : 0.03230323
 
Iteration Number = 32

DILUPBiCG:  Solving for Ux, Initial residual = 0.027734417, Final residual = 1.8441469e-05, No Iterations 2
DILUPBiCG:  Solving for Uy, Initial residual = 0.02497534, Final residual = 9.4498393e-06, No Iterations 2
DILUPBiCG:  Solving for Uz, Initial residual = 0.062050013, Final residual = 3.5465188e-05, No Iterations 2
DILUPBiCG:  Solving for h, Initial residual = 0.018795154, Final residual = 1.2682091e-06, No Iterations 2
GAMG:  Solving for p_rgh, Initial residual = 0.0085142609, Final residual = 0.00079798803, No Iterations 3
time step continuity errors : sum local = 8.5001545e-05, global = 4.8898525e-06, cumulative = 6.5851654e-05
ExecutionTime = 23.96 s  ClockTime = 24 s
Inflow      : -2.0948892e-08 [kg/s]
Outflow     : -5.4611658e-10 [kg/s]
EnergyInflow  : -0.0063223756 [W]
EnergyOutflow : -0.00016464149 [W]
EnergyBalance : 0.0061577341 [W]
rho max/avg/min : 1.176411 1.1759292 1.1729812
T   max/avg/min : 300.84331 300.10613 300
P   max/avg/min : 101324.94 101319.23 101313.52
Prg max/avg/min : 101325 101325 101324.97
U   max/avg/min : 8.4904286e-05 1.3377672e-06 -1.7037682e-05
Prg max-min : 0.032901378
 
Iteration Number = 33

DILUPBiCG:  Solving for Ux, Initial residual = 0.026297429, Final residual = 1.8139445e-05, No Iterations 2
DILUPBiCG:  Solving for Uy, Initial residual = 0.024320541, Final residual = 1.0019274e-05, No Iterations 2
DILUPBiCG:  Solving for Uz, Initial residual = 0.060636936, Final residual = 3.2335245e-05, No Iterations 2
DILUPBiCG:  Solving for h, Initial residual = 0.018316637, Final residual = 1.3331958e-06, No Iterations 2
GAMG:  Solving for p_rgh, Initial residual = 0.0083542349, Final residual = 0.0008075023, No Iterations 3
time step continuity errors : sum local = 8.8516075e-05, global = 5.0557579e-06, cumulative = 7.0907411e-05
ExecutionTime = 24.73 s  ClockTime = 25 s
Inflow      : -2.1143644e-08 [kg/s]
Outflow     : -4.8633249e-11 [kg/s]
EnergyInflow  : -0.0063811518 [W]
EnergyOutflow : -1.4482262e-05 [W]
EnergyBalance : 0.0063666695 [W]
rho max/avg/min : 1.176411 1.1759144 1.1729192
T   max/avg/min : 300.85921 300.1099 300
P   max/avg/min : 101324.94 101319.23 101313.52
Prg max/avg/min : 101325 101325 101324.97
U   max/avg/min : 8.9251751e-05 1.5338911e-06 -1.7422259e-05
Prg max-min : 0.033492243
 
Iteration Number = 34

DILUPBiCG:  Solving for Ux, Initial residual = 0.025761124, Final residual = 1.8505275e-05, No Iterations 2
DILUPBiCG:  Solving for Uy, Initial residual = 0.024080477, Final residual = 1.020215e-05, No Iterations 2
DILUPBiCG:  Solving for Uz, Initial residual = 0.059411856, Final residual = 2.9299476e-05, No Iterations 2
DILUPBiCG:  Solving for h, Initial residual = 0.017863644, Final residual = 1.3964581e-06, No Iterations 2
GAMG:  Solving for p_rgh, Initial residual = 0.0082245935, Final residual = 0.00081798104, No Iterations 3
time step continuity errors : sum local = 9.2182997e-05, global = 5.2213975e-06, cumulative = 7.6128809e-05
ExecutionTime = 25.54 s  ClockTime = 26 s
Inflow      : -2.1208395e-08 [kg/s]
Outflow     : 5.7774328e-10 [kg/s]
EnergyInflow  : -0.0064006935 [W]
EnergyOutflow : 0.00017457871 [W]
EnergyBalance : 0.0065752722 [W]
rho max/avg/min : 1.176411 1.1758996 1.1728578
T   max/avg/min : 300.87494 300.11369 300
P   max/avg/min : 101324.94 101319.23 101313.52
Prg max/avg/min : 101325 101325 101324.97
U   max/avg/min : 9.3797072e-05 1.7488305e-06 -1.764513e-05
Prg max-min : 0.034077521
 
Iteration Number = 35

DILUPBiCG:  Solving for Ux, Initial residual = 0.025780528, Final residual = 1.8558463e-05, No Iterations 2
DILUPBiCG:  Solving for Uy, Initial residual = 0.02413877, Final residual = 1.0361512e-05, No Iterations 2
DILUPBiCG:  Solving for Uz, Initial residual = 0.058349577, Final residual = 2.6567615e-05, No Iterations 2
DILUPBiCG:  Solving for h, Initial residual = 0.017436002, Final residual = 1.4625408e-06, No Iterations 2
GAMG:  Solving for p_rgh, Initial residual = 0.0080988327, Final residual = 0.00055561369, No Iterations 4
time step continuity errors : sum local = 6.436333e-05, global = 4.5940145e-06, cumulative = 8.0722823e-05
ExecutionTime = 26.32 s  ClockTime = 27 s
Inflow      : -1.7826607e-08 [kg/s]
Outflow     : 1.3417923e-09 [kg/s]
EnergyInflow  : -0.00538007 [W]
EnergyOutflow : 0.00040519115 [W]
EnergyBalance : 0.0057852612 [W]
rho max/avg/min : 1.176411 1.1758846 1.1727971
T   max/avg/min : 300.89053 300.11751 300
P   max/avg/min : 101324.94 101319.23 101313.52
Prg max/avg/min : 101325 101325 101324.97
U   max/avg/min : 9.8764688e-05 1.9929211e-06 -1.7633718e-05
Prg max-min : 0.034688114
 
Iteration Number = 36

DILUPBiCG:  Solving for Ux, Initial residual = 0.027246268, Final residual = 1.8984071e-05, No Iterations 2
DILUPBiCG:  Solving for Uy, Initial residual = 0.025992231, Final residual = 1.8300105e-05, No Iterations 2
DILUPBiCG:  Solving for Uz, Initial residual = 0.057910895, Final residual = 2.3868822e-05, No Iterations 2
DILUPBiCG:  Solving for h, Initial residual = 0.017030835, Final residual = 1.5285041e-06, No Iterations 2
GAMG:  Solving for p_rgh, Initial residual = 0.0079413684, Final residual = 0.00076133816, No Iterations 3
time step continuity errors : sum local = 9.0833225e-05, global = 5.2355634e-06, cumulative = 8.5958387e-05
ExecutionTime = 27.12 s  ClockTime = 28 s
Inflow      : -1.9573928e-08 [kg/s]
Outflow     : 2.2713162e-09 [kg/s]
EnergyInflow  : -0.0059074116 [W]
EnergyOutflow : 0.00068574599 [W]
EnergyBalance : 0.0065931576 [W]
rho max/avg/min : 1.176411 1.1758696 1.1727369
T   max/avg/min : 300.90596 300.12135 300
P   max/avg/min : 101324.94 101319.23 101313.52
Prg max/avg/min : 101325 101325 101324.96
U   max/avg/min : 0.0001038194 2.2631062e-06 -1.7463509e-05
Prg max-min : 0.035255665
 
Iteration Number = 37

DILUPBiCG:  Solving for Ux, Initial residual = 0.025848737, Final residual = 1.7388516e-05, No Iterations 2
DILUPBiCG:  Solving for Uy, Initial residual = 0.024367441, Final residual = 1.1519641e-05, No Iterations 2
DILUPBiCG:  Solving for Uz, Initial residual = 0.057158092, Final residual = 2.3198255e-05, No Iterations 2
DILUPBiCG:  Solving for h, Initial residual = 0.016647101, Final residual = 1.5217514e-06, No Iterations 2
GAMG:  Solving for p_rgh, Initial residual = 0.0078508559, Final residual = 0.00076989957, No Iterations 3
time step continuity errors : sum local = 9.4222647e-05, global = 5.3300032e-06, cumulative = 9.128839e-05
ExecutionTime = 27.87 s  ClockTime = 28 s
Inflow      : -1.8917655e-08 [kg/s]
Outflow     : 3.3216374e-09 [kg/s]
EnergyInflow  : -0.0057093482 [W]
EnergyOutflow : 0.0010027596 [W]
EnergyBalance : 0.0067121078 [W]
rho max/avg/min : 1.176411 1.1758545 1.1726773
T   max/avg/min : 300.92126 300.12522 300
P   max/avg/min : 101324.94 101319.23 101313.52
Prg max/avg/min : 101325 101325 101324.96
U   max/avg/min : 0.00010905732 2.5528095e-06 -1.715731e-05
Prg max-min : 0.035818953
 
Iteration Number = 38

DILUPBiCG:  Solving for Ux, Initial residual = 0.025921571, Final residual = 1.930475e-05, No Iterations 2
DILUPBiCG:  Solving for Uy, Initial residual = 0.023585456, Final residual = 1.0646177e-05, No Iterations 2
DILUPBiCG:  Solving for Uz, Initial residual = 0.056532877, Final residual = 2.3274015e-05, No Iterations 2
DILUPBiCG:  Solving for h, Initial residual = 0.016283332, Final residual = 1.5766863e-06, No Iterations 2
GAMG:  Solving for p_rgh, Initial residual = 0.0077943839, Final residual = 0.00053481918, No Iterations 4
time step continuity errors : sum local = 6.7148725e-05, global = 4.6215378e-06, cumulative = 9.5909928e-05
ExecutionTime = 28.64 s  ClockTime = 29 s
Inflow      : -1.4792078e-08 [kg/s]
Outflow     : 4.491162e-09 [kg/s]
EnergyInflow  : -0.0044642491 [W]
EnergyOutflow : 0.0013557511 [W]
EnergyBalance : 0.0058200002 [W]
rho max/avg/min : 1.176411 1.1758393 1.1726183
T   max/avg/min : 300.93641 300.1291 300
P   max/avg/min : 101324.94 101319.23 101313.52
Prg max/avg/min : 101325 101325 101324.96
U   max/avg/min : 0.00011470059 2.873237e-06 -1.6706371e-05
Prg max-min : 0.036416216
 
Iteration Number = 39

DILUPBiCG:  Solving for Ux, Initial residual = 0.025762522, Final residual = 1.7836818e-05, No Iterations 2
DILUPBiCG:  Solving for Uy, Initial residual = 0.023747239, Final residual = 1.1971701e-05, No Iterations 2
DILUPBiCG:  Solving for Uz, Initial residual = 0.057063658, Final residual = 2.8069265e-05, No Iterations 2
DILUPBiCG:  Solving for h, Initial residual = 0.015937864, Final residual = 1.6664286e-06, No Iterations 2
GAMG:  Solving for p_rgh, Initial residual = 0.0076887067, Final residual = 0.00051422687, No Iterations 4
time step continuity errors : sum local = 6.6367948e-05, global = 4.4865645e-06, cumulative = 0.00010039649
ExecutionTime = 29.41 s  ClockTime = 30 s
Inflow      : -1.2937554e-08 [kg/s]
Outflow     : 5.7825128e-09 [kg/s]
EnergyInflow  : -0.0039045539 [W]
EnergyOutflow : 0.0017455122 [W]
EnergyBalance : 0.005650066 [W]
rho max/avg/min : 1.176411 1.175824 1.1725597
T   max/avg/min : 300.95144 300.13301 300
P   max/avg/min : 101324.94 101319.23 101313.52
Prg max/avg/min : 101325 101325 101324.96
U   max/avg/min : 0.00012036603 3.2317076e-06 -1.613105e-05
Prg max-min : 0.037007428
 
Iteration Number = 40

DILUPBiCG:  Solving for Ux, Initial residual = 0.02598738, Final residual = 1.9296563e-05, No Iterations 2
DILUPBiCG:  Solving for Uy, Initial residual = 0.024296188, Final residual = 1.6025519e-05, No Iterations 2
DILUPBiCG:  Solving for Uz, Initial residual = 0.057873888, Final residual = 3.3640352e-05, No Iterations 2
DILUPBiCG:  Solving for h, Initial residual = 0.01560951, Final residual = 1.6953439e-06, No Iterations 2
GAMG:  Solving for p_rgh, Initial residual = 0.0075584483, Final residual = 0.00074369778, No Iterations 3
time step continuity errors : sum local = 9.8670349e-05, global = 4.9949457e-06, cumulative = 0.00010539144
ExecutionTime = 30.17 s  ClockTime = 31 s
Inflow      : -1.3650586e-08 [kg/s]
Outflow     : 7.1906876e-09 [kg/s]
EnergyInflow  : -0.004119747 [W]
EnergyOutflow : 0.0021705332 [W]
EnergyBalance : 0.0062902802 [W]
rho max/avg/min : 1.176411 1.1758086 1.1725017
T   max/avg/min : 300.96634 300.13695 300
P   max/avg/min : 101324.94 101319.23 101313.52
Prg max/avg/min : 101325 101325 101324.96
U   max/avg/min : 0.00012629635 3.6170066e-06 -1.529154e-05
Prg max-min : 0.037551044
 
Iteration Number = 41

DILUPBiCG:  Solving for Ux, Initial residual = 0.024418407, Final residual = 1.926766e-05, No Iterations 2
DILUPBiCG:  Solving for Uy, Initial residual = 0.022460901, Final residual = 1.073911e-05, No Iterations 2
DILUPBiCG:  Solving for Uz, Initial residual = 0.057475814, Final residual = 3.4305612e-05, No Iterations 2
DILUPBiCG:  Solving for h, Initial residual = 0.01529694, Final residual = 1.6920336e-06, No Iterations 2
GAMG:  Solving for p_rgh, Initial residual = 0.0075387513, Final residual = 0.00051849821, No Iterations 4
time step continuity errors : sum local = 7.0416897e-05, global = 4.2912773e-06, cumulative = 0.00010968272
ExecutionTime = 30.97 s  ClockTime = 31 s
Inflow      : -9.2527514e-09 [kg/s]
Outflow     : 8.6524855e-09 [kg/s]
EnergyInflow  : -0.0027924804 [W]
EnergyOutflow : 0.0026117404 [W]
EnergyBalance : 0.0054042208 [W]
rho max/avg/min : 1.176411 1.1757931 1.1724441
T   max/avg/min : 300.98112 300.1409 300
P   max/avg/min : 101324.94 101319.23 101313.52
Prg max/avg/min : 101325 101325 101324.96
U   max/avg/min : 0.00013250581 4.0278498e-06 -1.4603778e-05
Prg max-min : 0.038135447
 
Iteration Number = 42

DILUPBiCG:  Solving for Ux, Initial residual = 0.024302309, Final residual = 1.8915516e-05, No Iterations 2
DILUPBiCG:  Solving for Uy, Initial residual = 0.022500463, Final residual = 1.0807046e-05, No Iterations 2
DILUPBiCG:  Solving for Uz, Initial residual = 0.057707044, Final residual = 3.6164317e-05, No Iterations 2
DILUPBiCG:  Solving for h, Initial residual = 0.014998988, Final residual = 1.8095185e-06, No Iterations 2
GAMG:  Solving for p_rgh, Initial residual = 0.0074796536, Final residual = 0.00051695897, No Iterations 4
time step continuity errors : sum local = 7.2093981e-05, global = 4.1679477e-06, cumulative = 0.00011385066
ExecutionTime = 31.75 s  ClockTime = 32 s
Inflow      : -7.1580747e-09 [kg/s]
Outflow     : 1.0232573e-08 [kg/s]
EnergyInflow  : -0.002160307 [W]
EnergyOutflow : 0.0030886501 [W]
EnergyBalance : 0.0052489571 [W]
rho max/avg/min : 1.176411 1.1757776 1.172387
T   max/avg/min : 300.99578 300.14488 300
P   max/avg/min : 101324.94 101319.23 101313.52
Prg max/avg/min : 101325 101325 101324.96
U   max/avg/min : 0.00013872189 4.4686175e-06 -1.384481e-05
Prg max-min : 0.038712346
 
Iteration Number = 43

DILUPBiCG:  Solving for Ux, Initial residual = 0.024479389, Final residual = 1.8979116e-05, No Iterations 2
DILUPBiCG:  Solving for Uy, Initial residual = 0.023154464, Final residual = 1.3944797e-05, No Iterations 2
DILUPBiCG:  Solving for Uz, Initial residual = 0.057824247, Final residual = 3.7739603e-05, No Iterations 2
DILUPBiCG:  Solving for h, Initial residual = 0.014713919, Final residual = 1.8649508e-06, No Iterations 2
GAMG:  Solving for p_rgh, Initial residual = 0.0073976035, Final residual = 0.00050538302, No Iterations 4
time step continuity errors : sum local = 7.2246409e-05, global = 4.5730753e-06, cumulative = 0.00011842374
ExecutionTime = 32.63 s  ClockTime = 33 s
Inflow      : -7.1497043e-09 [kg/s]
Outflow     : 1.1931327e-08 [kg/s]
EnergyInflow  : -0.0021577808 [W]
EnergyOutflow : 0.0036013765 [W]
EnergyBalance : 0.0057591572 [W]
rho max/avg/min : 1.176411 1.1757619 1.1723304
T   max/avg/min : 301.01033 300.14888 300
P   max/avg/min : 101324.94 101319.23 101313.52
Prg max/avg/min : 101325 101325 101324.96
U   max/avg/min : 0.00014527268 4.9390317e-06 -1.2922525e-05
Prg max-min : 0.039282739
 
Iteration Number = 44

DILUPBiCG:  Solving for Ux, Initial residual = 0.024826196, Final residual = 2.0083401e-05, No Iterations 2
DILUPBiCG:  Solving for Uy, Initial residual = 0.023387199, Final residual = 1.4569437e-05, No Iterations 2
DILUPBiCG:  Solving for Uz, Initial residual = 0.057831465, Final residual = 3.9048024e-05, No Iterations 2
DILUPBiCG:  Solving for h, Initial residual = 0.014441146, Final residual = 1.914934e-06, No Iterations 2
GAMG:  Solving for p_rgh, Initial residual = 0.0073230269, Final residual = 0.00049963927, No Iterations 4
time step continuity errors : sum local = 7.3249605e-05, global = 4.6365089e-06, cumulative = 0.00012306025
ExecutionTime = 33.42 s  ClockTime = 34 s
Inflow      : -5.6010062e-09 [kg/s]
Outflow     : 1.37447e-08 [kg/s]
EnergyInflow  : -0.0016903837 [W]
EnergyOutflow : 0.004148698 [W]
EnergyBalance : 0.0058390817 [W]
rho max/avg/min : 1.176411 1.1757462 1.1722741
T   max/avg/min : 301.02477 300.15289 300
P   max/avg/min : 101324.94 101319.23 101313.52
Prg max/avg/min : 101325 101325 101324.96
U   max/avg/min : 0.00015200965 5.4388974e-06 -1.186622e-05
Prg max-min : 0.039842771
 
Iteration Number = 45

DILUPBiCG:  Solving for Ux, Initial residual = 0.024711608, Final residual = 2.0307418e-05, No Iterations 2
DILUPBiCG:  Solving for Uy, Initial residual = 0.023189458, Final residual = 1.3572431e-05, No Iterations 2
DILUPBiCG:  Solving for Uz, Initial residual = 0.057689189, Final residual = 4.0032108e-05, No Iterations 2
DILUPBiCG:  Solving for h, Initial residual = 0.014180345, Final residual = 1.9736843e-06, No Iterations 2
GAMG:  Solving for p_rgh, Initial residual = 0.0072682916, Final residual = 0.00050205102, No Iterations 4
time step continuity errors : sum local = 7.5351698e-05, global = 4.7662829e-06, cumulative = 0.00012782653
ExecutionTime = 34.19 s  ClockTime = 35 s
Inflow      : -4.1820402e-09 [kg/s]
Outflow     : 1.5705144e-08 [kg/s]
EnergyInflow  : -0.0012621397 [W]
EnergyOutflow : 0.0047404089 [W]
EnergyBalance : 0.0060025486 [W]
rho max/avg/min : 1.176411 1.1757304 1.1722183
T   max/avg/min : 301.0391 300.15693 300
P   max/avg/min : 101324.94 101319.23 101313.52
Prg max/avg/min : 101325 101325 101324.96
U   max/avg/min : 0.00015878122 5.9676569e-06 -1.0688036e-05
Prg max-min : 0.040395174
 
Iteration Number = 46

DILUPBiCG:  Solving for Ux, Initial residual = 0.024777459, Final residual = 2.143224e-05, No Iterations 2
DILUPBiCG:  Solving for Uy, Initial residual = 0.022806867, Final residual = 1.1932612e-05, No Iterations 2
DILUPBiCG:  Solving for Uz, Initial residual = 0.057342633, Final residual = 4.04438e-05, No Iterations 2
DILUPBiCG:  Solving for h, Initial residual = 0.013929848, Final residual = 2.0427704e-06, No Iterations 2
GAMG:  Solving for p_rgh, Initial residual = 0.0072137519, Final residual = 0.00051168467, No Iterations 4
time step continuity errors : sum local = 7.8641608e-05, global = 4.919995e-06, cumulative = 0.00013274653
ExecutionTime = 34.95 s  ClockTime = 35 s
Inflow      : -2.7027363e-09 [kg/s]
Outflow     : 1.7825808e-08 [kg/s]
EnergyInflow  : -0.0008156858 [W]
EnergyOutflow : 0.0053804777 [W]
EnergyBalance : 0.0061961635 [W]
rho max/avg/min : 1.176411 1.1757145 1.1721629
T   max/avg/min : 301.05333 300.16099 300
P   max/avg/min : 101324.94 101319.23 101313.52
Prg max/avg/min : 101325 101325 101324.96
U   max/avg/min : 0.00016607904 6.524608e-06 -9.586002e-06
Prg max-min : 0.040938507
 
Iteration Number = 47

DILUPBiCG:  Solving for Ux, Initial residual = 0.024848417, Final residual = 2.2134268e-05, No Iterations 2
DILUPBiCG:  Solving for Uy, Initial residual = 0.022578682, Final residual = 1.1871065e-05, No Iterations 2
DILUPBiCG:  Solving for Uz, Initial residual = 0.056885211, Final residual = 4.0533681e-05, No Iterations 2
DILUPBiCG:  Solving for h, Initial residual = 0.013690144, Final residual = 2.1251682e-06, No Iterations 2
GAMG:  Solving for p_rgh, Initial residual = 0.0071862537, Final residual = 0.00052577437, No Iterations 4
time step continuity errors : sum local = 8.2642222e-05, global = 5.0744133e-06, cumulative = 0.00013782094
ExecutionTime = 35.75 s  ClockTime = 36 s
Inflow      : -1.0524848e-09 [kg/s]
Outflow     : 2.0120366e-08 [kg/s]
EnergyInflow  : -0.00031763991 [W]
EnergyOutflow : 0.0060730315 [W]
EnergyBalance : 0.0063906714 [W]
rho max/avg/min : 1.176411 1.1756986 1.1721079
T   max/avg/min : 301.06746 300.16507 300
P   max/avg/min : 101324.94 101319.23 101313.52
Prg max/avg/min : 101325 101325 101324.96
U   max/avg/min : 0.00017352409 7.1092581e-06 -8.5025027e-06
Prg max-min : 0.041475777
 

    From function virtual bool Foam::regIOobject::readIfModified()
    in file db/regIOobject/regIOobjectRead.C at line 291
    
    Re-reading object fvSolution from file "/home/pedro/Documents/ThesisProject/OpenFoam/validation7rod/justfluid/system/fvSolution"
Iteration Number = 48

DILUPBiCG:  Solving for Ux, Initial residual = 0.025173612, Final residual = 2.3274023e-05, No Iterations 2
DILUPBiCG:  Solving for Uy, Initial residual = 0.022598544, Final residual = 1.2261493e-05, No Iterations 2
DILUPBiCG:  Solving for Uz, Initial residual = 0.056312672, Final residual = 4.0322207e-05, No Iterations 2
DILUPBiCG:  Solving for h, Initial residual = 0.049519226, Final residual = 2.7425587e-05, No Iterations 3
GAMG:  Solving for p_rgh, Initial residual = 0.012404903, Final residual = 0.00098075826, No Iterations 4
time step continuity errors : sum local = 0.00015824472, global = 8.9743447e-06, cumulative = 0.00014679528
ExecutionTime = 36.55 s  ClockTime = 37 s
Inflow      : -1.1492216e-08 [kg/s]
Outflow     : 2.5952991e-08 [kg/s]
EnergyInflow  : -0.0034683507 [W]
EnergyOutflow : 0.0078334814 [W]
EnergyBalance : 0.011301832 [W]
rho max/avg/min : 1.176411 1.1756359 1.1719007
T   max/avg/min : 301.1207 300.1811 300
P   max/avg/min : 101324.94 101319.23 101313.52
Prg max/avg/min : 101325 101325 101324.96
U   max/avg/min : 0.0001953065 7.7911188e-06 -7.6300268e-06
Prg max-min : 0.043960391
 
Iteration Number = 49

DILUPBiCG:  Solving for Ux, Initial residual = 0.33867285, Final residual = 0.00019713145, No Iterations 2
DILUPBiCG:  Solving for Uy, Initial residual = 0.27525587, Final residual = 0.00012959274, No Iterations 2
DILUPBiCG:  Solving for Uz, Initial residual = 0.068051352, Final residual = 4.9053868e-05, No Iterations 2
DILUPBiCG:  Solving for h, Initial residual = 0.046716113, Final residual = 3.2306666e-05, No Iterations 3
GAMG:  Solving for p_rgh, Initial residual = 0.0079812615, Final residual = 0.00073493548, No Iterations 4
time step continuity errors : sum local = 0.00013039895, global = 1.2145166e-05, cumulative = 0.00015894045
ExecutionTime = 37.35 s  ClockTime = 38 s
Inflow      : -1.7518121e-08 [kg/s]
Outflow     : 3.3157252e-08 [kg/s]
EnergyInflow  : -0.0052869689 [W]
EnergyOutflow : 0.010008043 [W]
EnergyBalance : 0.015295012 [W]
rho max/avg/min : 1.176411 1.1755722 1.1716974
T   max/avg/min : 301.17295 300.1974 300
P   max/avg/min : 101324.94 101319.23 101313.52
Prg max/avg/min : 101325 101325 101324.95
U   max/avg/min : 0.00024505509 8.5944976e-06 -7.5705241e-06
Prg max-min : 0.045336901
 
Iteration Number = 50

DILUPBiCG:  Solving for Ux, Initial residual = 0.10768868, Final residual = 0.00010152966, No Iterations 2
DILUPBiCG:  Solving for Uy, Initial residual = 0.10655757, Final residual = 0.00010533272, No Iterations 2
DILUPBiCG:  Solving for Uz, Initial residual = 0.071709229, Final residual = 5.8134191e-05, No Iterations 2
DILUPBiCG:  Solving for h, Initial residual = 0.044265874, Final residual = 3.7724571e-05, No Iterations 3
GAMG:  Solving for p_rgh, Initial residual = 0.009558771, Final residual = 0.00080909747, No Iterations 4
time step continuity errors : sum local = 0.00015242068, global = 1.1173862e-05, cumulative = 0.00017011431
ExecutionTime = 38.12 s  ClockTime = 39 s
Inflow      : -3.7805337e-09 [kg/s]
Outflow     : 4.2842098e-08 [kg/s]
EnergyInflow  : -0.0011409651 [W]
EnergyOutflow : 0.012931342 [W]
EnergyBalance : 0.014072307 [W]
rho max/avg/min : 1.176411 1.1755075 1.1714989
T   max/avg/min : 301.22399 300.21395 300
P   max/avg/min : 101324.94 101319.23 101313.52
Prg max/avg/min : 101325 101325 101324.95
U   max/avg/min : 0.00031296301 9.5453812e-06 -8.848965e-06
Prg max-min : 0.047340089
 
Iteration Number = 51

DILUPBiCG:  Solving for Ux, Initial residual = 0.10083412, Final residual = 9.9837624e-05, No Iterations 2
DILUPBiCG:  Solving for Uy, Initial residual = 0.099092552, Final residual = 7.0264611e-05, No Iterations 2
DILUPBiCG:  Solving for Uz, Initial residual = 0.075378791, Final residual = 6.5791861e-05, No Iterations 2
DILUPBiCG:  Solving for h, Initial residual = 0.042107133, Final residual = 3.7430902e-05, No Iterations 3
GAMG:  Solving for p_rgh, Initial residual = 0.0096602852, Final residual = 0.00089927963, No Iterations 4
time step continuity errors : sum local = 0.00018220136, global = 1.2591981e-05, cumulative = 0.00018270629
ExecutionTime = 38.91 s  ClockTime = 39 s
Inflow      : 3.0714056e-09 [kg/s]
Outflow     : 5.5611101e-08 [kg/s]
EnergyInflow  : 0.0009269502 [W]
EnergyOutflow : 0.016785559 [W]
EnergyBalance : 0.015858608 [W]
rho max/avg/min : 1.176411 1.1754418 1.1713044
T   max/avg/min : 301.27402 300.23076 300
P   max/avg/min : 101324.94 101319.23 101313.52
Prg max/avg/min : 101325 101325 101324.95
U   max/avg/min : 0.00039247637 1.0691672e-05 -9.4847611e-06
Prg max-min : 0.049430273
 
Iteration Number = 52

DILUPBiCG:  Solving for Ux, Initial residual = 0.096453316, Final residual = 4.5100978e-06, No Iterations 3
DILUPBiCG:  Solving for Uy, Initial residual = 0.088191883, Final residual = 8.1801297e-05, No Iterations 2
DILUPBiCG:  Solving for Uz, Initial residual = 0.078547384, Final residual = 7.2283614e-05, No Iterations 2
DILUPBiCG:  Solving for h, Initial residual = 0.040192194, Final residual = 6.4743562e-06, No Iterations 4
GAMG:  Solving for p_rgh, Initial residual = 0.0089437809, Final residual = 0.00087698291, No Iterations 4
time step continuity errors : sum local = 0.00019126488, global = 1.4235984e-05, cumulative = 0.00019694228
ExecutionTime = 39.71 s  ClockTime = 40 s
Inflow      : 1.2705318e-08 [kg/s]
Outflow     : 7.2104572e-08 [kg/s]
EnergyInflow  : 0.0038344649 [W]
EnergyOutflow : 0.021763967 [W]
EnergyBalance : 0.017929502 [W]
rho max/avg/min : 1.176411 1.1753752 1.1711138
T   max/avg/min : 301.32309 300.2478 300
P   max/avg/min : 101324.94 101319.23 101313.52
Prg max/avg/min : 101325 101325 101324.95
U   max/avg/min : 0.00048370144 1.2072568e-05 -8.9304106e-06
Prg max-min : 0.051405898
 
Iteration Number = 53

DILUPBiCG:  Solving for Ux, Initial residual = 0.081051923, Final residual = 4.3354778e-06, No Iterations 3
DILUPBiCG:  Solving for Uy, Initial residual = 0.074145058, Final residual = 3.2242887e-06, No Iterations 3
DILUPBiCG:  Solving for Uz, Initial residual = 0.081149034, Final residual = 7.887765e-05, No Iterations 2
DILUPBiCG:  Solving for h, Initial residual = 0.038480754, Final residual = 7.0683174e-06, No Iterations 4
GAMG:  Solving for p_rgh, Initial residual = 0.0087109847, Final residual = 0.00084156977, No Iterations 4
time step continuity errors : sum local = 0.00019679644, global = 1.5965691e-05, cumulative = 0.00021290797
ExecutionTime = 40.53 s  ClockTime = 41 s
Inflow      : 2.5550956e-08 [kg/s]
Outflow     : 9.2167361e-08 [kg/s]
EnergyInflow  : 0.0077112785 [W]
EnergyOutflow : 0.027819774 [W]
EnergyBalance : 0.020108495 [W]
rho max/avg/min : 1.176411 1.1753077 1.1709265
T   max/avg/min : 301.37131 300.26506 300
P   max/avg/min : 101324.94 101319.23 101313.52
Prg max/avg/min : 101325 101324.99 101324.95
U   max/avg/min : 0.00058493039 1.3777087e-05 -9.0367466e-06
Prg max-min : 0.053409107
 
Iteration Number = 54

DILUPBiCG:  Solving for Ux, Initial residual = 0.075282328, Final residual = 4.273102e-06, No Iterations 3
DILUPBiCG:  Solving for Uy, Initial residual = 0.069715673, Final residual = 3.011492e-06, No Iterations 3
DILUPBiCG:  Solving for Uz, Initial residual = 0.084241037, Final residual = 2.5050168e-06, No Iterations 3
DILUPBiCG:  Solving for h, Initial residual = 0.036938575, Final residual = 7.261966e-06, No Iterations 4
GAMG:  Solving for p_rgh, Initial residual = 0.0085245593, Final residual = 0.00083897239, No Iterations 4
time step continuity errors : sum local = 0.0002101503, global = 1.5807973e-05, cumulative = 0.00022871594
ExecutionTime = 41.35 s  ClockTime = 42 s
Inflow      : 5.0196029e-08 [kg/s]
Outflow     : 1.1615436e-07 [kg/s]
EnergyInflow  : 0.015149162 [W]
EnergyOutflow : 0.035060117 [W]
EnergyBalance : 0.019910955 [W]
rho max/avg/min : 1.176411 1.1752395 1.1707422
T   max/avg/min : 301.41876 300.28254 300
P   max/avg/min : 101324.94 101319.23 101313.52
Prg max/avg/min : 101325 101324.99 101324.94
U   max/avg/min : 0.00069533342 1.5873616e-05 -7.7692088e-06
Prg max-min : 0.055392747
 
Iteration Number = 55

DILUPBiCG:  Solving for Ux, Initial residual = 0.073512926, Final residual = 4.4053924e-06, No Iterations 3
DILUPBiCG:  Solving for Uy, Initial residual = 0.068674107, Final residual = 2.9833825e-06, No Iterations 3
DILUPBiCG:  Solving for Uz, Initial residual = 0.087491651, Final residual = 2.8841378e-06, No Iterations 3
DILUPBiCG:  Solving for h, Initial residual = 0.035544464, Final residual = 7.382505e-06, No Iterations 4
GAMG:  Solving for p_rgh, Initial residual = 0.008259277, Final residual = 0.0005583898, No Iterations 5
time step continuity errors : sum local = 0.0001493338, global = 1.4400079e-05, cumulative = 0.00024311602
ExecutionTime = 42.18 s  ClockTime = 43 s
Inflow      : 8.4552806e-08 [kg/s]
Outflow     : 1.4463674e-07 [kg/s]
EnergyInflow  : 0.025518037 [W]
EnergyOutflow : 0.043657407 [W]
EnergyBalance : 0.01813937 [W]
rho max/avg/min : 1.176411 1.1751704 1.1705607
T   max/avg/min : 301.46549 300.30022 300
P   max/avg/min : 101324.94 101319.23 101313.52
Prg max/avg/min : 101325 101324.99 101324.94
U   max/avg/min : 0.00081316729 1.8507421e-05 -4.7001248e-06
Prg max-min : 0.057557818
 
Iteration Number = 56

DILUPBiCG:  Solving for Ux, Initial residual = 0.075325222, Final residual = 5.0910174e-06, No Iterations 3
DILUPBiCG:  Solving for Uy, Initial residual = 0.078829465, Final residual = 3.9765376e-06, No Iterations 3
DILUPBiCG:  Solving for Uz, Initial residual = 0.09319785, Final residual = 3.45734e-06, No Iterations 3
DILUPBiCG:  Solving for h, Initial residual = 0.034276376, Final residual = 7.882589e-06, No Iterations 4
GAMG:  Solving for p_rgh, Initial residual = 0.0082150296, Final residual = 0.00070280868, No Iterations 4
time step continuity errors : sum local = 0.00020134672, global = 1.4736479e-05, cumulative = 0.0002578525
ExecutionTime = 43 s  ClockTime = 43 s
Inflow      : 1.1703268e-07 [kg/s]
Outflow     : 1.7852023e-07 [kg/s]
EnergyInflow  : 0.035320462 [W]
EnergyOutflow : 0.053885035 [W]
EnergyBalance : 0.018564573 [W]
rho max/avg/min : 1.176411 1.1751006 1.1703819
T   max/avg/min : 301.51155 300.3181 300
P   max/avg/min : 101324.94 101319.23 101313.52
Prg max/avg/min : 101325 101324.99 101324.94
U   max/avg/min : 0.00093788744 2.1643724e-05 -2.4564826e-06
Prg max-min : 0.059266087
 
Iteration Number = 57

DILUPBiCG:  Solving for Ux, Initial residual = 0.077819618, Final residual = 5.4701199e-06, No Iterations 3
DILUPBiCG:  Solving for Uy, Initial residual = 0.059932865, Final residual = 5.0893075e-05, No Iterations 2
DILUPBiCG:  Solving for Uz, Initial residual = 0.091329586, Final residual = 3.5570182e-06, No Iterations 3
DILUPBiCG:  Solving for h, Initial residual = 0.033117768, Final residual = 6.8773175e-06, No Iterations 4
GAMG:  Solving for p_rgh, Initial residual = 0.0077654551, Final residual = 0.00058746366, No Iterations 5
time step continuity errors : sum local = 0.00017752453, global = 1.4347096e-05, cumulative = 0.00027219959
ExecutionTime = 43.81 s  ClockTime = 44 s
Inflow      : 1.5760809e-07 [kg/s]
Outflow     : 2.1747096e-07 [kg/s]
EnergyInflow  : 0.047566122 [W]
EnergyOutflow : 0.065642269 [W]
EnergyBalance : 0.018076147 [W]
rho max/avg/min : 1.1764111 1.17503 1.1702056
T   max/avg/min : 301.55697 300.33616 299.99999
P   max/avg/min : 101324.94 101319.23 101313.52
Prg max/avg/min : 101325 101324.99 101324.94
U   max/avg/min : 0.001067094 2.5298818e-05 -1.6787757e-06
Prg max-min : 0.061124774
 
Iteration Number = 58

DILUPBiCG:  Solving for Ux, Initial residual = 0.078184982, Final residual = 5.083344e-06, No Iterations 3
DILUPBiCG:  Solving for Uy, Initial residual = 0.07627835, Final residual = 4.3622814e-06, No Iterations 3
DILUPBiCG:  Solving for Uz, Initial residual = 0.090544101, Final residual = 3.6954106e-06, No Iterations 3
DILUPBiCG:  Solving for h, Initial residual = 0.032053331, Final residual = 8.2168983e-06, No Iterations 4
GAMG:  Solving for p_rgh, Initial residual = 0.0078473194, Final residual = 0.00075781883, No Iterations 4
time step continuity errors : sum local = 0.00024305483, global = 1.5875243e-05, cumulative = 0.00028807484
ExecutionTime = 44.63 s  ClockTime = 45 s
Inflow      : 1.9572949e-07 [kg/s]
Outflow     : 2.6196851e-07 [kg/s]
EnergyInflow  : 0.05907116 [W]
EnergyOutflow : 0.079073895 [W]
EnergyBalance : 0.020002735 [W]
rho max/avg/min : 1.1764111 1.1749588 1.1700316
T   max/avg/min : 301.60181 300.3544 299.99999
P   max/avg/min : 101324.94 101319.23 101313.52
Prg max/avg/min : 101325 101324.99 101324.94
U   max/avg/min : 0.0012021716 2.9432669e-05 -8.3298931e-07
Prg max-min : 0.062643453
 
Iteration Number = 59

DILUPBiCG:  Solving for Ux, Initial residual = 0.080602689, Final residual = 6.1178755e-06, No Iterations 3
DILUPBiCG:  Solving for Uy, Initial residual = 0.056887379, Final residual = 5.4977108e-05, No Iterations 2
DILUPBiCG:  Solving for Uz, Initial residual = 0.085192084, Final residual = 3.5591323e-06, No Iterations 3
DILUPBiCG:  Solving for h, Initial residual = 0.031072539, Final residual = 7.8530098e-06, No Iterations 4
GAMG:  Solving for p_rgh, Initial residual = 0.0077377426, Final residual = 0.0006158529, No Iterations 5
time step continuity errors : sum local = 0.00020722378, global = 1.7308127e-05, cumulative = 0.00030538296
ExecutionTime = 45.46 s  ClockTime = 46 s
Inflow      : 2.3925177e-07 [kg/s]
Outflow     : 3.1146946e-07 [kg/s]
EnergyInflow  : 0.072206185 [W]
EnergyOutflow : 0.094015949 [W]
EnergyBalance : 0.021809764 [W]
rho max/avg/min : 1.1764111 1.174887 1.1698599
T   max/avg/min : 301.64613 300.3728 299.99999
P   max/avg/min : 101324.94 101319.23 101313.52
Prg max/avg/min : 101325 101324.99 101324.94
U   max/avg/min : 0.0013393939 3.4029434e-05 -1.2465076e-07
Prg max-min : 0.064325394
 
Iteration Number = 60

DILUPBiCG:  Solving for Ux, Initial residual = 0.073596674, Final residual = 5.138178e-06, No Iterations 3
DILUPBiCG:  Solving for Uy, Initial residual = 0.07083027, Final residual = 4.4862208e-06, No Iterations 3
DILUPBiCG:  Solving for Uz, Initial residual = 0.080862002, Final residual = 3.4430515e-06, No Iterations 3
DILUPBiCG:  Solving for h, Initial residual = 0.030164966, Final residual = 8.6852068e-06, No Iterations 4
GAMG:  Solving for p_rgh, Initial residual = 0.0080010151, Final residual = 0.00075053043, No Iterations 4
time step continuity errors : sum local = 0.00026661861, global = 1.8995288e-05, cumulative = 0.00032437825
ExecutionTime = 46.29 s  ClockTime = 47 s
Inflow      : 2.8757613e-07 [kg/s]
Outflow     : 3.6683345e-07 [kg/s]
EnergyInflow  : 0.086790477 [W]
EnergyOutflow : 0.11072791 [W]
EnergyBalance : 0.023937436 [W]
rho max/avg/min : 1.1764111 1.1748145 1.1696901
T   max/avg/min : 301.68987 300.39137 299.99999
P   max/avg/min : 101324.94 101319.23 101313.52
Prg max/avg/min : 101325 101324.99 101324.93
U   max/avg/min : 0.0014802892 3.9089411e-05 9.4650966e-07
Prg max-min : 0.065753929
 
Iteration Number = 61

DILUPBiCG:  Solving for Ux, Initial residual = 0.076033614, Final residual = 6.0563801e-06, No Iterations 3
DILUPBiCG:  Solving for Uy, Initial residual = 0.05337634, Final residual = 2.2977915e-06, No Iterations 3
DILUPBiCG:  Solving for Uz, Initial residual = 0.07536005, Final residual = 3.2568659e-06, No Iterations 3
DILUPBiCG:  Solving for h, Initial residual = 0.029323016, Final residual = 8.0234447e-06, No Iterations 4
GAMG:  Solving for p_rgh, Initial residual = 0.0078395065, Final residual = 0.00059662104, No Iterations 5
time step continuity errors : sum local = 0.00022155164, global = 2.0490154e-05, cumulative = 0.00034486841
ExecutionTime = 47.11 s  ClockTime = 48 s
Inflow      : 3.4273756e-07 [kg/s]
Outflow     : 4.2823216e-07 [kg/s]
EnergyInflow  : 0.10343819 [W]
EnergyOutflow : 0.12926165 [W]
EnergyBalance : 0.025823453 [W]
rho max/avg/min : 1.1764111 1.1747414 1.1695223
T   max/avg/min : 301.7332 300.41009 299.99999
P   max/avg/min : 101324.94 101319.23 101313.52
Prg max/avg/min : 101325 101324.99 101324.93
U   max/avg/min : 0.0016245348 4.4653169e-05 1.5866772e-06
Prg max-min : 0.06742757
 
Iteration Number = 62

DILUPBiCG:  Solving for Ux, Initial residual = 0.072428922, Final residual = 5.2752812e-06, No Iterations 3
DILUPBiCG:  Solving for Uy, Initial residual = 0.068053899, Final residual = 4.5914328e-06, No Iterations 3
DILUPBiCG:  Solving for Uz, Initial residual = 0.071225984, Final residual = 3.1247255e-06, No Iterations 3
DILUPBiCG:  Solving for h, Initial residual = 0.028538519, Final residual = 8.567239e-06, No Iterations 4
GAMG:  Solving for p_rgh, Initial residual = 0.0078484745, Final residual = 0.00072103794, No Iterations 4
time step continuity errors : sum local = 0.00028151942, global = 2.1736262e-05, cumulative = 0.00036660467
ExecutionTime = 47.93 s  ClockTime = 48 s
Inflow      : 4.0607765e-07 [kg/s]
Outflow     : 4.9677161e-07 [kg/s]
EnergyInflow  : 0.12255424 [W]
EnergyOutflow : 0.149951 [W]
EnergyBalance : 0.02739676 [W]
rho max/avg/min : 1.1764111 1.1746678 1.1693564
T   max/avg/min : 301.77609 300.42896 299.99998
P   max/avg/min : 101324.94 101319.23 101313.52
Prg max/avg/min : 101325 101324.99 101324.93
U   max/avg/min : 0.001770731 5.0732917e-05 1.6573858e-06
Prg max-min : 0.068881615
 
Iteration Number = 63

DILUPBiCG:  Solving for Ux, Initial residual = 0.076897664, Final residual = 6.1243399e-06, No Iterations 3
DILUPBiCG:  Solving for Uy, Initial residual = 0.051339721, Final residual = 2.4297331e-06, No Iterations 3
DILUPBiCG:  Solving for Uz, Initial residual = 0.066511389, Final residual = 2.9542503e-06, No Iterations 3
DILUPBiCG:  Solving for h, Initial residual = 0.027806139, Final residual = 7.9191069e-06, No Iterations 4
GAMG:  Solving for p_rgh, Initial residual = 0.0077208725, Final residual = 0.00057414556, No Iterations 5
time step continuity errors : sum local = 0.00023372503, global = 2.3041258e-05, cumulative = 0.00038964593
ExecutionTime = 48.76 s  ClockTime = 49 s
Inflow      : 4.7622379e-07 [kg/s]
Outflow     : 5.7236281e-07 [kg/s]
EnergyInflow  : 0.14372434 [W]
EnergyOutflow : 0.17276915 [W]
EnergyBalance : 0.029044808 [W]
rho max/avg/min : 1.1764111 1.1745936 1.1691921
T   max/avg/min : 301.81845 300.44798 299.99998
P   max/avg/min : 101324.94 101319.23 101313.52
Prg max/avg/min : 101325 101324.99 101324.93
U   max/avg/min : 0.0019189686 5.7385084e-05 1.7203414e-06
Prg max-min : 0.070639547
 
Iteration Number = 64

DILUPBiCG:  Solving for Ux, Initial residual = 0.070787677, Final residual = 5.4019167e-06, No Iterations 3
DILUPBiCG:  Solving for Uy, Initial residual = 0.065876136, Final residual = 4.5412919e-06, No Iterations 3
DILUPBiCG:  Solving for Uz, Initial residual = 0.063110433, Final residual = 2.8393889e-06, No Iterations 3
DILUPBiCG:  Solving for h, Initial residual = 0.027118876, Final residual = 8.2705051e-06, No Iterations 4
GAMG:  Solving for p_rgh, Initial residual = 0.0078843436, Final residual = 0.00069639925, No Iterations 4
time step continuity errors : sum local = 0.00029755053, global = 2.3952113e-05, cumulative = 0.00041359804
ExecutionTime = 49.57 s  ClockTime = 50 s
Inflow      : 5.5580985e-07 [kg/s]
Outflow     : 6.5574938e-07 [kg/s]
EnergyInflow  : 0.16774341 [W]
EnergyOutflow : 0.19794058 [W]
EnergyBalance : 0.030197173 [W]
rho max/avg/min : 1.1764111 1.1745189 1.1690294
T   max/avg/min : 301.86042 300.46712 299.99998
P   max/avg/min : 101324.94 101319.23 101313.52
Prg max/avg/min : 101325 101324.99 101324.93
U   max/avg/min : 0.0020697929 6.4622777e-05 1.7827985e-06
Prg max-min : 0.072136378
 
Iteration Number = 65

DILUPBiCG:  Solving for Ux, Initial residual = 0.074730617, Final residual = 6.2547696e-06, No Iterations 3
DILUPBiCG:  Solving for Uy, Initial residual = 0.048055881, Final residual = 2.3992838e-06, No Iterations 3
DILUPBiCG:  Solving for Uz, Initial residual = 0.059209126, Final residual = 2.694982e-06, No Iterations 3
DILUPBiCG:  Solving for h, Initial residual = 0.026474688, Final residual = 7.7602031e-06, No Iterations 4
GAMG:  Solving for p_rgh, Initial residual = 0.0075662751, Final residual = 0.00056268748, No Iterations 5
time step continuity errors : sum local = 0.00024996834, global = 2.5351474e-05, cumulative = 0.00043894951
ExecutionTime = 50.41 s  ClockTime = 51 s
Inflow      : 6.4083746e-07 [kg/s]
Outflow     : 7.4661579e-07 [kg/s]
EnergyInflow  : 0.19340474 [W]
EnergyOutflow : 0.22537012 [W]
EnergyBalance : 0.031965379 [W]
rho max/avg/min : 1.1764111 1.1744438 1.1688683
T   max/avg/min : 301.90207 300.48639 299.99997
P   max/avg/min : 101324.94 101319.23 101313.52
Prg max/avg/min : 101325 101324.99 101324.93
U   max/avg/min : 0.0022241349 7.2501846e-05 1.8489792e-06
Prg max-min : 0.073947958
 
Iteration Number = 66

DILUPBiCG:  Solving for Ux, Initial residual = 0.068397686, Final residual = 5.3704135e-06, No Iterations 3
DILUPBiCG:  Solving for Uy, Initial residual = 0.064065768, Final residual = 4.4924124e-06, No Iterations 3
DILUPBiCG:  Solving for Uz, Initial residual = 0.056389607, Final residual = 2.5974617e-06, No Iterations 3
DILUPBiCG:  Solving for h, Initial residual = 0.025867049, Final residual = 8.034647e-06, No Iterations 4
GAMG:  Solving for p_rgh, Initial residual = 0.0079135459, Final residual = 0.00068459365, No Iterations 4
time step continuity errors : sum local = 0.00031830533, global = 2.6239543e-05, cumulative = 0.00046518906
ExecutionTime = 51.21 s  ClockTime = 52 s
Inflow      : 7.3579213e-07 [kg/s]
Outflow     : 8.452759e-07 [kg/s]
EnergyInflow  : 0.22206206 [W]
EnergyOutflow : 0.25515256 [W]
EnergyBalance : 0.033090491 [W]
rho max/avg/min : 1.1764111 1.1743681 1.1687086
T   max/avg/min : 301.94332 300.50579 299.99997
P   max/avg/min : 101324.94 101319.23 101313.52
Prg max/avg/min : 101325 101324.99 101324.92
U   max/avg/min : 0.0023826245 8.1031179e-05 1.9161523e-06
Prg max-min : 0.075442037
 
Iteration Number = 67

DILUPBiCG:  Solving for Ux, Initial residual = 0.073960095, Final residual = 6.2319986e-06, No Iterations 3
DILUPBiCG:  Solving for Uy, Initial residual = 0.046821668, Final residual = 2.4789151e-06, No Iterations 3
DILUPBiCG:  Solving for Uz, Initial residual = 0.053110893, Final residual = 2.4726451e-06, No Iterations 3
DILUPBiCG:  Solving for h, Initial residual = 0.025294733, Final residual = 7.7340778e-06, No Iterations 4
GAMG:  Solving for p_rgh, Initial residual = 0.0077016534, Final residual = 0.00055925796, No Iterations 5
time step continuity errors : sum local = 0.0002695663, global = 2.7879762e-05, cumulative = 0.00049306882
ExecutionTime = 52.06 s  ClockTime = 53 s
Inflow      : 8.3533661e-07 [kg/s]
Outflow     : 9.5166415e-07 [kg/s]
EnergyInflow  : 0.25210459 [W]
EnergyOutflow : 0.28726815 [W]
EnergyBalance : 0.035163564 [W]
rho max/avg/min : 1.1764111 1.174292 1.1685503
T   max/avg/min : 301.98426 300.52531 299.99996
P   max/avg/min : 101324.94 101319.23 101313.52
Prg max/avg/min : 101325 101324.99 101324.92
U   max/avg/min : 0.0025747167 9.0263869e-05 1.9920854e-06
Prg max-min : 0.077233334
 
Iteration Number = 68

DILUPBiCG:  Solving for Ux, Initial residual = 0.067493805, Final residual = 5.257577e-06, No Iterations 3
DILUPBiCG:  Solving for Uy, Initial residual = 0.06242412, Final residual = 4.5591462e-06, No Iterations 3
DILUPBiCG:  Solving for Uz, Initial residual = 0.050718871, Final residual = 2.3871272e-06, No Iterations 3
DILUPBiCG:  Solving for h, Initial residual = 0.024752664, Final residual = 7.9040409e-06, No Iterations 4
GAMG:  Solving for p_rgh, Initial residual = 0.0079752697, Final residual = 0.0006787397, No Iterations 4
time step continuity errors : sum local = 0.00034129483, global = 2.8904207e-05, cumulative = 0.00052197302
ExecutionTime = 52.87 s  ClockTime = 53 s
Inflow      : 9.4499041e-07 [kg/s]
Outflow     : 1.0655924e-06 [kg/s]
EnergyInflow  : 0.28519811 [W]
EnergyOutflow : 0.3216602 [W]
EnergyBalance : 0.036462096 [W]
rho max/avg/min : 1.1764111 1.1742155 1.1683933
T   max/avg/min : 302.02485 300.54493 299.99996
[...]
time step continuity errors : sum local = 0.039430316, global = -0.00085670803, cumulative = 0.0015709418
ExecutionTime = 533.96 s  ClockTime = 535 s
Inflow      : 0.00021540778 [kg/s]
Outflow     : 0.00021183319 [kg/s]
EnergyInflow  : 65.010069 [W]
EnergyOutflow : 64.583009 [W]
EnergyBalance : -0.4270597 [W]
rho max/avg/min : 1.1764114 1.139128 1.1079804
T   max/avg/min : 318.52003 309.94548 299.99243
P   max/avg/min : 101324.94 101319.22 101312
Prg max/avg/min : 101326.71 101324.81 101322.5
U   max/avg/min : 0.54924431 0.067512606 -0.068937915
Prg max-min : 4.212862
 
Iteration Number = 574

DILUPBiCG:  Solving for Ux, Initial residual = 0.29108519, Final residual = 0.00022625104, No Iterations 2
DILUPBiCG:  Solving for Uy, Initial residual = 0.29221824, Final residual = 0.00018154862, No Iterations 2
DILUPBiCG:  Solving for Uz, Initial residual = 0.019726989, Final residual = 1.3627962e-05, No Iterations 2
DILUPBiCG:  Solving for h, Initial residual = 0.0028443298, Final residual = 2.5322413e-07, No Iterations 10
GAMG:  Solving for p_rgh, Initial residual = 0.060955844, Final residual = 0.0056763893, No Iterations 10
time step continuity errors : sum local = 0.038685357, global = 0.00045558743, cumulative = 0.0020265292
ExecutionTime = 534.92 s  ClockTime = 536 s
Inflow      : 0.0002174703 [kg/s]
Outflow     : 0.00021937123 [kg/s]
EnergyInflow  : 65.632538 [W]
EnergyOutflow : 66.91101 [W]
EnergyBalance : 1.2784721 [W]
rho max/avg/min : 1.1764114 1.1390766 1.1078719
T   max/avg/min : 318.55121 309.95996 299.99246
P   max/avg/min : 101324.94 101319.22 101312
Prg max/avg/min : 101326.47 101324.8 101322.6
U   max/avg/min : 0.58822609 0.067830259 -0.086207118
Prg max-min : 3.8751464
 
Iteration Number = 575

DILUPBiCG:  Solving for Ux, Initial residual = 0.28718669, Final residual = 0.00022045906, No Iterations 2
DILUPBiCG:  Solving for Uy, Initial residual = 0.29395896, Final residual = 0.00018559882, No Iterations 2
DILUPBiCG:  Solving for Uz, Initial residual = 0.019036071, Final residual = 1.3617678e-05, No Iterations 2
DILUPBiCG:  Solving for h, Initial residual = 0.0028777768, Final residual = 1.3977686e-06, No Iterations 8
GAMG:  Solving for p_rgh, Initial residual = 0.060500055, Final residual = 0.0057776293, No Iterations 10
time step continuity errors : sum local = 0.039873571, global = -0.00074165391, cumulative = 0.0012848753
ExecutionTime = 535.86 s  ClockTime = 537 s
Inflow      : 0.00021687563 [kg/s]
Outflow     : 0.0002137811 [kg/s]
EnergyInflow  : 65.453066 [W]
EnergyOutflow : 65.216418 [W]
EnergyBalance : -0.23664826 [W]
rho max/avg/min : 1.1764114 1.1390289 1.1077628
T   max/avg/min : 318.58238 309.97342 299.9925
P   max/avg/min : 101324.94 101319.22 101311.62
Prg max/avg/min : 101326.52 101324.8 101322.2
U   max/avg/min : 0.64973493 0.068123098 -0.056263085
Prg max-min : 4.3146295
 
Iteration Number = 576

DILUPBiCG:  Solving for Ux, Initial residual = 0.27160986, Final residual = 0.00020926301, No Iterations 2
DILUPBiCG:  Solving for Uy, Initial residual = 0.29207158, Final residual = 0.00018584477, No Iterations 2
DILUPBiCG:  Solving for Uz, Initial residual = 0.019276654, Final residual = 1.2433744e-05, No Iterations 2
DILUPBiCG:  Solving for h, Initial residual = 0.0028722719, Final residual = 2.3314483e-06, No Iterations 7
GAMG:  Solving for p_rgh, Initial residual = 0.06013342, Final residual = 0.0056198717, No Iterations 11
time step continuity errors : sum local = 0.038983747, global = -0.0013282714, cumulative = -4.3396101e-05
ExecutionTime = 536.8 s  ClockTime = 538 s
Inflow      : 0.00020916741 [kg/s]
Outflow     : 0.00020362524 [kg/s]
EnergyInflow  : 63.126725 [W]
EnergyOutflow : 62.091331 [W]
EnergyBalance : -1.035394 [W]
rho max/avg/min : 1.1764114 1.1389828 1.1076539
T   max/avg/min : 318.61352 309.98646 299.99252
P   max/avg/min : 101324.94 101319.23 101311.64
Prg max/avg/min : 101326.35 101324.81 101322.05
U   max/avg/min : 0.59802054 0.068225169 -0.08412425
Prg max-min : 4.2911272
 
Iteration Number = 577

DILUPBiCG:  Solving for Ux, Initial residual = 0.26200223, Final residual = 0.00020566832, No Iterations 2
DILUPBiCG:  Solving for Uy, Initial residual = 0.29406151, Final residual = 0.00019306024, No Iterations 2
DILUPBiCG:  Solving for Uz, Initial residual = 0.019737769, Final residual = 1.3107582e-05, No Iterations 2
DILUPBiCG:  Solving for h, Initial residual = 0.0028384025, Final residual = 2.4932368e-06, No Iterations 9
GAMG:  Solving for p_rgh, Initial residual = 0.060601742, Final residual = 0.0057203339, No Iterations 10
time step continuity errors : sum local = 0.039414817, global = -0.00032048162, cumulative = -0.00036387772
ExecutionTime = 537.75 s  ClockTime = 539 s
Inflow      : 0.00020981039 [kg/s]
Outflow     : 0.00020847318 [kg/s]
EnergyInflow  : 63.320774 [W]
EnergyOutflow : 63.476015 [W]
EnergyBalance : 0.15524075 [W]
rho max/avg/min : 1.1764114 1.1389358 1.1075455
T   max/avg/min : 318.64466 309.99976 299.99256
P   max/avg/min : 101324.94 101319.23 101312.17
Prg max/avg/min : 101326.31 101324.81 101322.38
U   max/avg/min : 0.57760505 0.06816896 -0.093702106
Prg max-min : 3.9264625
 
Iteration Number = 578

DILUPBiCG:  Solving for Ux, Initial residual = 0.27051829, Final residual = 0.00022231568, No Iterations 2
DILUPBiCG:  Solving for Uy, Initial residual = 0.29987969, Final residual = 0.00019336187, No Iterations 2
DILUPBiCG:  Solving for Uz, Initial residual = 0.019957912, Final residual = 1.3091822e-05, No Iterations 2
DILUPBiCG:  Solving for h, Initial residual = 0.0028523563, Final residual = 9.2195241e-07, No Iterations 9
GAMG:  Solving for p_rgh, Initial residual = 0.062068148, Final residual = 0.0061303076, No Iterations 10
time step continuity errors : sum local = 0.041448107, global = -0.00099624024, cumulative = -0.001360118
ExecutionTime = 538.71 s  ClockTime = 539 s
Inflow      : 0.00020136785 [kg/s]
Outflow     : 0.00019721106 [kg/s]
EnergyInflow  : 60.772817 [W]
EnergyOutflow : 60.01635 [W]
EnergyBalance : -0.75646674 [W]
rho max/avg/min : 1.1764114 1.1388849 1.1074369
T   max/avg/min : 318.67583 310.01407 299.99259
P   max/avg/min : 101324.94 101319.24 101311.49
Prg max/avg/min : 101326.57 101324.82 101322.15
U   max/avg/min : 0.66476966 0.067992876 -0.072698394
Prg max-min : 4.4193989
 
Iteration Number = 579

DILUPBiCG:  Solving for Ux, Initial residual = 0.27930365, Final residual = 0.00022323967, No Iterations 2
DILUPBiCG:  Solving for Uy, Initial residual = 0.29856202, Final residual = 0.00019513896, No Iterations 2
DILUPBiCG:  Solving for Uz, Initial residual = 0.020420953, Final residual = 1.719304e-05, No Iterations 2
DILUPBiCG:  Solving for h, Initial residual = 0.0028699466, Final residual = 1.0460369e-06, No Iterations 8
GAMG:  Solving for p_rgh, Initial residual = 0.063974958, Final residual = 0.0059819216, No Iterations 12
time step continuity errors : sum local = 0.039960759, global = 0.0024209583, cumulative = 0.0010608403
ExecutionTime = 539.7 s  ClockTime = 540 s
Inflow      : 0.00021608034 [kg/s]
Outflow     : 0.00022618172 [kg/s]
EnergyInflow  : 65.213045 [W]
EnergyOutflow : 68.751562 [W]
EnergyBalance : 3.5385166 [W]
rho max/avg/min : 1.1764114 1.1388304 1.1073286
T   max/avg/min : 318.707 310.02938 299.99263
P   max/avg/min : 101324.94 101319.24 101311.99
Prg max/avg/min : 101327.01 101324.82 101322.39
U   max/avg/min : 0.61836439 0.067955011 -0.10827957
Prg max-min : 4.620064
 
Iteration Number = 580

DILUPBiCG:  Solving for Ux, Initial residual = 0.29077425, Final residual = 0.00024557337, No Iterations 2
DILUPBiCG:  Solving for Uy, Initial residual = 0.29842189, Final residual = 0.00019695282, No Iterations 2
DILUPBiCG:  Solving for Uz, Initial residual = 0.021278524, Final residual = 1.6151792e-05, No Iterations 2
DILUPBiCG:  Solving for h, Initial residual = 0.0029048889, Final residual = 2.017365e-06, No Iterations 8
GAMG:  Solving for p_rgh, Initial residual = 0.066055317, Final residual = 0.0063087652, No Iterations 10
time step continuity errors : sum local = 0.041988805, global = 0.0003630323, cumulative = 0.0014238726
ExecutionTime = 540.63 s  ClockTime = 541 s
Inflow      : 0.00021729358 [kg/s]
Outflow     : 0.00021880832 [kg/s]
EnergyInflow  : 65.579202 [W]
EnergyOutflow : 66.584008 [W]
EnergyBalance : 1.0048068 [W]
rho max/avg/min : 1.1764114 1.1387734 1.1072204
T   max/avg/min : 318.73815 310.04531 299.99266
P   max/avg/min : 101324.94 101319.23 101312.57
Prg max/avg/min : 101326.73 101324.81 101322.43
U   max/avg/min : 0.58619511 0.068107426 -0.16470458
Prg max-min : 4.3073548
 
Iteration Number = 581

DILUPBiCG:  Solving for Ux, Initial residual = 0.27015203, Final residual = 0.00023386048, No Iterations 2
DILUPBiCG:  Solving for Uy, Initial residual = 0.26837781, Final residual = 0.00018766227, No Iterations 2
DILUPBiCG:  Solving for Uz, Initial residual = 0.020296447, Final residual = 1.4027117e-05, No Iterations 2
DILUPBiCG:  Solving for h, Initial residual = 0.0028860405, Final residual = 9.7804038e-07, No Iterations 8
GAMG:  Solving for p_rgh, Initial residual = 0.064951057, Final residual = 0.0059895823, No Iterations 11
time step continuity errors : sum local = 0.040517453, global = -0.00010836628, cumulative = 0.0013155063
ExecutionTime = 541.59 s  ClockTime = 542 s
Inflow      : 0.00021839348 [kg/s]
Outflow     : 0.00021794133 [kg/s]
EnergyInflow  : 65.911153 [W]
EnergyOutflow : 66.420729 [W]
EnergyBalance : 0.50957579 [W]
rho max/avg/min : 1.1764114 1.1387173 1.1071122
T   max/avg/min : 318.76931 310.06102 299.99266
P   max/avg/min : 101324.94 101319.22 101311.88
Prg max/avg/min : 101326.66 101324.8 101322.4
U   max/avg/min : 0.60336735 0.068400805 -0.085444609
Prg max-min : 4.260955
 
Iteration Number = 582

DILUPBiCG:  Solving for Ux, Initial residual = 0.29000283, Final residual = 0.00023580428, No Iterations 2
DILUPBiCG:  Solving for Uy, Initial residual = 0.28582842, Final residual = 0.00019976058, No Iterations 2
DILUPBiCG:  Solving for Uz, Initial residual = 0.020761129, Final residual = 1.4656425e-05, No Iterations 2
DILUPBiCG:  Solving for h, Initial residual = 0.002855038, Final residual = 1.0310997e-06, No Iterations 8
GAMG:  Solving for p_rgh, Initial residual = 0.063043562, Final residual = 0.0062780805, No Iterations 9
time step continuity errors : sum local = 0.043610422, global = 0.00051525412, cumulative = 0.0018307605
ExecutionTime = 542.51 s  ClockTime = 543 s
Inflow      : 0.00022252172 [kg/s]
Outflow     : 0.0002246716 [kg/s]
EnergyInflow  : 67.157054 [W]
EnergyOutflow : 68.537036 [W]
EnergyBalance : 1.379982 [W]
rho max/avg/min : 1.1764114 1.1386654 1.1070039
T   max/avg/min : 318.80046 310.07564 299.99267
P   max/avg/min : 101324.94 101319.22 101311.71
Prg max/avg/min : 101326.65 101324.8 101322.3
U   max/avg/min : 0.57821097 0.068800206 -0.099226267
Prg max-min : 4.3520832
 
Iteration Number = 583

DILUPBiCG:  Solving for Ux, Initial residual = 0.28752656, Final residual = 0.0002190598, No Iterations 2
DILUPBiCG:  Solving for Uy, Initial residual = 0.29230561, Final residual = 0.00018600321, No Iterations 2
DILUPBiCG:  Solving for Uz, Initial residual = 0.020448418, Final residual = 1.6031697e-05, No Iterations 2
DILUPBiCG:  Solving for h, Initial residual = 0.0028624025, Final residual = 1.3401542e-06, No Iterations 7
GAMG:  Solving for p_rgh, Initial residual = 0.061536419, Final residual = 0.0060192636, No Iterations 11
time step continuity errors : sum local = 0.042500729, global = -0.0019542412, cumulative = -0.00012348069
ExecutionTime = 543.45 s  ClockTime = 544 s
Inflow      : 0.00021125775 [kg/s]
Outflow     : 0.00020310373 [kg/s]
EnergyInflow  : 63.757588 [W]
EnergyOutflow : 62.053517 [W]
EnergyBalance : -1.7040706 [W]
rho max/avg/min : 1.1764114 1.1386184 1.1068955
T   max/avg/min : 318.83161 310.08895 299.99267
P   max/avg/min : 101324.94 101319.22 101311.48
Prg max/avg/min : 101326.61 101324.8 101322.19
U   max/avg/min : 0.63731372 0.069088257 -0.072360218
Prg max-min : 4.4191287
 
Iteration Number = 584

DILUPBiCG:  Solving for Ux, Initial residual = 0.28454191, Final residual = 0.00023213562, No Iterations 2
DILUPBiCG:  Solving for Uy, Initial residual = 0.30433137, Final residual = 0.00020064857, No Iterations 2
DILUPBiCG:  Solving for Uz, Initial residual = 0.020793322, Final residual = 1.537181e-05, No Iterations 2
DILUPBiCG:  Solving for h, Initial residual = 0.0028930752, Final residual = 1.4105528e-06, No Iterations 8
GAMG:  Solving for p_rgh, Initial residual = 0.063068948, Final residual = 0.0063061158, No Iterations 10
time step continuity errors : sum local = 0.044936264, global = -0.00057622497, cumulative = -0.00069970566
ExecutionTime = 544.38 s  ClockTime = 545 s
Inflow      : 0.00020834609 [kg/s]
Outflow     : 0.00020594181 [kg/s]
EnergyInflow  : 62.87885 [W]
EnergyOutflow : 62.865758 [W]
EnergyBalance : -0.013092 [W]
rho max/avg/min : 1.1764114 1.1385753 1.1067873
T   max/avg/min : 318.86274 310.10123 299.99268
P   max/avg/min : 101324.94 101319.23 101311.28
Prg max/avg/min : 101326.59 101324.81 101322
U   max/avg/min : 0.64901911 0.069189332 -0.05825279
Prg max-min : 4.5872897
 
Iteration Number = 585

DILUPBiCG:  Solving for Ux, Initial residual = 0.26159065, Final residual = 0.00020949172, No Iterations 2
DILUPBiCG:  Solving for Uy, Initial residual = 0.29367551, Final residual = 0.00019290189, No Iterations 2
DILUPBiCG:  Solving for Uz, Initial residual = 0.020684293, Final residual = 1.4788405e-05, No Iterations 2
DILUPBiCG:  Solving for h, Initial residual = 0.0029015744, Final residual = 2.3689016e-06, No Iterations 8
GAMG:  Solving for p_rgh, Initial residual = 0.063491268, Final residual = 0.0059316907, No Iterations 11
time step continuity errors : sum local = 0.042066525, global = -0.00055120825, cumulative = -0.0012509139
ExecutionTime = 545.37 s  ClockTime = 546 s
Inflow      : 0.00020271908 [kg/s]
Outflow     : 0.00020041918 [kg/s]
EnergyInflow  : 61.180618 [W]
EnergyOutflow : 61.120194 [W]
EnergyBalance : -0.060423613 [W]
rho max/avg/min : 1.1764114 1.1385323 1.106679
T   max/avg/min : 318.89387 310.11344 299.99269
P   max/avg/min : 101324.94 101319.24 101312.05
Prg max/avg/min : 101326.7 101324.82 101322.36
U   max/avg/min : 0.61460759 0.069097815 -0.080215132
Prg max-min : 4.3462078
 
Iteration Number = 586

DILUPBiCG:  Solving for Ux, Initial residual = 0.26688412, Final residual = 0.00022813313, No Iterations 2
DILUPBiCG:  Solving for Uy, Initial residual = 0.30858352, Final residual = 0.00021258722, No Iterations 2
DILUPBiCG:  Solving for Uz, Initial residual = 0.022050256, Final residual = 1.7458685e-05, No Iterations 2
DILUPBiCG:  Solving for h, Initial residual = 0.0028708528, Final residual = 2.7637943e-06, No Iterations 7
GAMG:  Solving for p_rgh, Initial residual = 0.062974703, Final residual = 0.0060783921, No Iterations 10
time step continuity errors : sum local = 0.04226417, global = 0.00085828347, cumulative = -0.00039263044
ExecutionTime = 546.5 s  ClockTime = 547 s
Inflow      : 0.00020088095 [kg/s]
Outflow     : 0.00020446211 [kg/s]
EnergyInflow  : 60.62587 [W]
EnergyOutflow : 62.261551 [W]
EnergyBalance : 1.6356813 [W]
rho max/avg/min : 1.1764114 1.1384862 1.1065707
T   max/avg/min : 318.92504 310.1265 299.99271
P   max/avg/min : 101324.94 101319.24 101311.62
Prg max/avg/min : 101326.84 101324.82 101322.21
U   max/avg/min : 0.63154797 0.068890313 -0.071247707
Prg max-min : 4.623964
 
Iteration Number = 587

DILUPBiCG:  Solving for Ux, Initial residual = 0.27858849, Final residual = 0.00023141464, No Iterations 2
DILUPBiCG:  Solving for Uy, Initial residual = 0.30655694, Final residual = 0.00021262869, No Iterations 2
DILUPBiCG:  Solving for Uz, Initial residual = 0.02190391, Final residual = 1.7450243e-05, No Iterations 2
DILUPBiCG:  Solving for h, Initial residual = 0.0028868908, Final residual = 2.1403376e-06, No Iterations 7
GAMG:  Solving for p_rgh, Initial residual = 0.064158527, Final residual = 0.0061870703, No Iterations 10
time step continuity errors : sum local = 0.042251758, global = 0.00095019892, cumulative = 0.00055756849
ExecutionTime = 547.51 s  ClockTime = 548 s
Inflow      : 0.00020223953 [kg/s]
Outflow     : 0.00020620421 [kg/s]
EnergyInflow  : 61.035891 [W]
EnergyOutflow : 62.747714 [W]
EnergyBalance : 1.7118223 [W]
rho max/avg/min : 1.1764114 1.1384349 1.1064626
T   max/avg/min : 318.95618 310.14093 299.99274
P   max/avg/min : 101324.94 101319.24 101311.36
Prg max/avg/min : 101326.69 101324.82 101322.02
U   max/avg/min : 0.65500352 0.068705059 -0.064937867
Prg max-min : 4.6656348
 
Iteration Number = 588

DILUPBiCG:  Solving for Ux, Initial residual = 0.28346564, Final residual = 0.00023753208, No Iterations 2
DILUPBiCG:  Solving for Uy, Initial residual = 0.29597458, Final residual = 0.00019885607, No Iterations 2
DILUPBiCG:  Solving for Uz, Initial residual = 0.021378516, Final residual = 1.6117502e-05, No Iterations 2
DILUPBiCG:  Solving for h, Initial residual = 0.0029191964, Final residual = 1.9317872e-06, No Iterations 8
GAMG:  Solving for p_rgh, Initial residual = 0.065598255, Final residual = 0.0064344691, No Iterations 11
time step continuity errors : sum local = 0.043640458, global = 0.0010545128, cumulative = 0.0016120813
ExecutionTime = 548.55 s  ClockTime = 549 s
Inflow      : 0.00020465277 [kg/s]
Outflow     : 0.00020905269 [kg/s]
EnergyInflow  : 61.764205 [W]
EnergyOutflow : 63.631864 [W]
EnergyBalance : 1.8676586 [W]
rho max/avg/min : 1.1764114 1.13838 1.1063545
T   max/avg/min : 318.98733 310.15632 299.99276
P   max/avg/min : 101324.94 101319.24 101312.43
Prg max/avg/min : 101327.25 101324.82 101322.26
U   max/avg/min : 0.63749143 0.068650333 -0.17569402
Prg max-min : 4.9888432
 
Iteration Number = 589

DILUPBiCG:  Solving for Ux, Initial residual = 0.27984584, Final residual = 0.00024325632, No Iterations 2
DILUPBiCG:  Solving for Uy, Initial residual = 0.27645834, Final residual = 0.00019281337, No Iterations 2
DILUPBiCG:  Solving for Uz, Initial residual = 0.022028284, Final residual = 1.4137552e-05, No Iterations 2
DILUPBiCG:  Solving for h, Initial residual = 0.0029386885, Final residual = 1.0809226e-06, No Iterations 9
GAMG:  Solving for p_rgh, Initial residual = 0.065989093, Final residual = 0.0062320317, No Iterations 11
time step continuity errors : sum local = 0.042961842, global = 0.00072696304, cumulative = 0.0023390443
ExecutionTime = 549.63 s  ClockTime = 550 s
Inflow      : 0.00020689926 [kg/s]
Outflow     : 0.0002099325 [kg/s]
EnergyInflow  : 62.442198 [W]
EnergyOutflow : 63.984463 [W]
EnergyBalance : 1.5422657 [W]
rho max/avg/min : 1.1764114 1.138324 1.1062465
T   max/avg/min : 319.01848 310.17202 299.99278
P   max/avg/min : 101324.94 101319.23 101311.84
Prg max/avg/min : 101326.68 101324.81 101321.82
U   max/avg/min : 0.63538164 0.06880948 -0.16786411
Prg max-min : 4.8623766
 
Iteration Number = 590

DILUPBiCG:  Solving for Ux, Initial residual = 0.28036669, Final residual = 0.0002384715, No Iterations 2
DILUPBiCG:  Solving for Uy, Initial residual = 0.27050878, Final residual = 0.00019744614, No Iterations 2
DILUPBiCG:  Solving for Uz, Initial residual = 0.022162943, Final residual = 1.3856804e-05, No Iterations 2
DILUPBiCG:  Solving for h, Initial residual = 0.0028912277, Final residual = 1.7159716e-06, No Iterations 8
GAMG:  Solving for p_rgh, Initial residual = 0.063757599, Final residual = 0.0061893616, No Iterations 10
time step continuity errors : sum local = 0.044245396, global = -0.0003758625, cumulative = 0.0019631818
ExecutionTime = 550.61 s  ClockTime = 551 s
Inflow      : 0.00020522441 [kg/s]
Outflow     : 0.00020365613 [kg/s]
EnergyInflow  : 61.936727 [W]
EnergyOutflow : 62.20267 [W]
EnergyBalance : 0.2659434 [W]
rho max/avg/min : 1.1764114 1.1382715 1.1061384
T   max/avg/min : 319.04959 310.18676 299.99281
P   max/avg/min : 101324.94 101319.22 101311.66
Prg max/avg/min : 101326.61 101324.8 101322
U   max/avg/min : 0.6072853 0.069129687 -0.086053798
Prg max-min : 4.6088303
 
Iteration Number = 591

