/*---------------------------------------------------------------------------*\
| =========                 |                                                 |
| \\      /  F ield         | OpenFOAM: The Open Source CFD Toolbox           |
|  \\    /   O peration     | Version:  4.0                                   |
|   \\  /    A nd           | Web:      www.OpenFOAM.org                      |
|    \\/     M anipulation  |                                                 |
\*---------------------------------------------------------------------------*/
Build  : 4.0-665f1db4c1f1
Exec   : pupoBuoyantSimpleFoam
Date   : Oct 04 2016
Time   : 03:30:31
Host   : "FAB2000"
PID    : 25841
Case   : /home/pedro/Documents/ThesisProject/OpenFoam/validation7rod/justfluid
nProcs : 1
sigFpe : Enabling floating point exception trapping (FOAM_SIGFPE).
fileModificationChecking : Monitoring run-time modified files using timeStampMaster
allowSystemOperations : Allowing user-supplied system call operations

// * * * * * * * * * * * * * * * * * * * * * * * * * * * * * * * * * * * * * //
Create time

Create mesh for time = 0


SIMPLE: convergence criteria
    field p_rgh	 tolerance 0.0001
    field Uz	 tolerance 0.0001
    field h	 tolerance 0.0001

Reading thermophysical properties

Selecting thermodynamics package 
{
    type            heRhoThermo;
    mixture         pureMixture;
    transport       sutherland;
    thermo          hConst;
    equationOfState perfectGas;
    specie          specie;
    energy          sensibleEnthalpy;
}


Reading g

Reading hRef
Calculating field g.h

Selecting turbulence model type laminar
No MRF models present

Selecting radiationModel none
rho max/avg/min : 1.176411 1.1763447 1.1762784
T   max/avg/min : 300 300 300
P   max/avg/min : 101324.94 101319.23 101313.52
Prg max/avg/min : 101325 101325 101325
U   max/avg/min : 0 0 0
Prg max-min : 0.00065059763
 
No finite volume options present


Starting Iteration loop

Iteration Number = 1

DILUPBiCG:  Solving for Ux, Initial residual = 0.99999998, Final residual = 2.5981478e-05, No Iterations 2
DILUPBiCG:  Solving for Uy, Initial residual = 0.99999998, Final residual = 2.1591159e-05, No Iterations 2
DILUPBiCG:  Solving for Uz, Initial residual = 1, Final residual = 1.2583875e-05, No Iterations 2
DILUPBiCG:  Solving for h, Initial residual = 1, Final residual = 0.00083776642, No Iterations 6
sngrad(rho) : 6.903623e-310 -2.3372115 -9.81
GAMG:  Solving for p_rgh, Initial residual = 0.99994802, Final residual = 0.062916765, No Iterations 2
sngrad(rho) : 6.903623e-310 -2.3372115 -9.81
sngrad(rho) : 6.903623e-310 -2.3372115 -9.81
time step continuity errors : sum local = 0.062685123, global = 0.00041915647, cumulative = 0.00041915647
ExecutionTime = 0.6 s  ClockTime = 1 s
Inflow      : -3.6352082e-10 [kg/s]
Outflow     : 5.3490638e-08 [kg/s]
EnergyInflow  : -0.00010971058 [W]
EnergyOutflow : 0.016143475 [W]
EnergyBalance : 0.016253185 [W]
rho max/avg/min : 1.176411 1.1758738 1.1728604
T   max/avg/min : 300.87427 300.12028 300
P   max/avg/min : 101324.94 101319.23 101313.52
Prg max/avg/min : 101325 101325 101324.99
U   max/avg/min : 0.00265235 2.1306642e-06 -9.0940239e-06
 
Iteration Number = 2

DILUPBiCG:  Solving for Ux, Initial residual = 0.35763707, Final residual = 1.7962073e-06, No Iterations 2
DILUPBiCG:  Solving for Uy, Initial residual = 0.27875205, Final residual = 1.5403703e-06, No Iterations 2
DILUPBiCG:  Solving for Uz, Initial residual = 0.26095157, Final residual = 1.487615e-06, No Iterations 2
DILUPBiCG:  Solving for h, Initial residual = 0.19443861, Final residual = 4.5232994e-05, No Iterations 7
sngrad(rho) : 6.903623e-310 -1.5301923 -9.81
GAMG:  Solving for p_rgh, Initial residual = 0.87368267, Final residual = 0.062894719, No Iterations 2
sngrad(rho) : 6.903623e-310 -1.5301923 -9.81
sngrad(rho) : 6.903623e-310 -1.5301923 -9.81
time step continuity errors : sum local = 0.1919413, global = 0.00061950111, cumulative = 0.0010386576
ExecutionTime = 1.02 s  ClockTime = 1 s
Inflow      : -1.0763053e-09 [kg/s]
Outflow     : 7.851858e-08 [kg/s]
EnergyInflow  : -0.00032482893 [W]
EnergyOutflow : 0.023704925 [W]
EnergyBalance : 0.024029754 [W]
rho max/avg/min : 1.1764109 1.1754077 1.1710447
T   max/avg/min : 301.34092 300.23951 300.00003
P   max/avg/min : 101324.94 101319.23 101313.52
Prg max/avg/min : 101325 101325 101324.98
U   max/avg/min : 0.0026906352 4.3178629e-06 -4.4058588e-05
 
Iteration Number = 3

DILUPBiCG:  Solving for Ux, Initial residual = 0.22025242, Final residual = 1.2973734e-06, No Iterations 2
DILUPBiCG:  Solving for Uy, Initial residual = 0.16324325, Final residual = 9.9224973e-07, No Iterations 2
DILUPBiCG:  Solving for Uz, Initial residual = 0.15445383, Final residual = 1.2304815e-06, No Iterations 2
DILUPBiCG:  Solving for h, Initial residual = 0.12768347, Final residual = 3.4592384e-05, No Iterations 7
sngrad(rho) : 6.903623e-310 -0.90134615 -9.81
GAMG:  Solving for p_rgh, Initial residual = 0.74811072, Final residual = 0.07140487, No Iterations 2
sngrad(rho) : 6.903623e-310 -0.90134615 -9.81
sngrad(rho) : 6.903623e-310 -0.90134615 -9.81
time step continuity errors : sum local = 0.33324727, global = 0.00090051621, cumulative = 0.0019391738
ExecutionTime = 1.43 s  ClockTime = 1 s
Inflow      : -1.843271e-09 [kg/s]
Outflow     : 1.1385706e-07 [kg/s]
EnergyInflow  : -0.00055629917 [W]
EnergyOutflow : 0.034386068 [W]
EnergyBalance : 0.034942367 [W]
rho max/avg/min : 1.1764106 1.1749354 1.1697572
T   max/avg/min : 301.67269 300.36047 300.00012
P   max/avg/min : 101324.94 101319.24 101313.52
Prg max/avg/min : 101325 101325 101324.97
U   max/avg/min : 0.0026312669 6.5499031e-06 -0.00011905849
 
Iteration Number = 4

DILUPBiCG:  Solving for Ux, Initial residual = 0.13634848, Final residual = 9.7411949e-07, No Iterations 2
DILUPBiCG:  Solving for Uy, Initial residual = 0.10158463, Final residual = 7.153221e-07, No Iterations 2
DILUPBiCG:  Solving for Uz, Initial residual = 0.13403478, Final residual = 1.2831448e-06, No Iterations 2
DILUPBiCG:  Solving for h, Initial residual = 0.095338616, Final residual = 2.5572389e-05, No Iterations 7
sngrad(rho) : 6.903623e-310 -0.020961538 -9.81
GAMG:  Solving for p_rgh, Initial residual = 0.63974933, Final residual = 0.038053515, No Iterations 3
sngrad(rho) : 6.903623e-310 -0.020961538 -9.81
sngrad(rho) : 6.903623e-310 -0.020961538 -9.81
time step continuity errors : sum local = 0.22144236, global = 0.0012268968, cumulative = 0.0031660706
ExecutionTime = 1.85 s  ClockTime = 2 s
Inflow      : -2.892059e-09 [kg/s]
Outflow     : 1.5474238e-07 [kg/s]
EnergyInflow  : -0.00087282341 [W]
EnergyOutflow : 0.046752655 [W]
EnergyBalance : 0.047625479 [W]
rho max/avg/min : 1.1764098 1.1744563 1.1686508
T   max/avg/min : 301.95832 300.48331 300.00032
P   max/avg/min : 101324.94 101319.24 101313.52
Prg max/avg/min : 101325.01 101325 101324.95
U   max/avg/min : 0.002569698 9.1281015e-06 -0.00023625075
 
Iteration Number = 5

DILUPBiCG:  Solving for Ux, Initial residual = 0.077182471, Final residual = 8.011534e-07, No Iterations 2
DILUPBiCG:  Solving for Uy, Initial residual = 0.059043656, Final residual = 5.6478684e-07, No Iterations 2
DILUPBiCG:  Solving for Uz, Initial residual = 0.1290259, Final residual = 1.3839724e-06, No Iterations 2
DILUPBiCG:  Solving for h, Initial residual = 0.076028833, Final residual = 6.9614533e-05, No Iterations 6
sngrad(rho) : 6.903623e-310 1.4751331e-312 0
GAMG:  Solving for p_rgh, Initial residual = 0.5678361, Final residual = 0.039337109, No Iterations 3
sngrad(rho) : 6.903623e-310 1.4751331e-312 0
sngrad(rho) : 6.903623e-310 1.4751331e-312 0
time step continuity errors : sum local = 0.26274312, global = 0.00157193, cumulative = 0.0047380006
ExecutionTime = 2.29 s  ClockTime = 2 s
Inflow      : -3.7548477e-09 [kg/s]
Outflow     : 1.9821023e-07 [kg/s]
EnergyInflow  : -0.001133213 [W]
EnergyOutflow : 0.059912307 [W]
EnergyBalance : 0.06104552 [W]
rho max/avg/min : 1.1764083 1.1739786 1.1676529
T   max/avg/min : 302.21649 300.60595 300.00071
P   max/avg/min : 101324.94 101319.24 101313.52
Prg max/avg/min : 101325.01 101325 101324.93
U   max/avg/min : 0.0027025809 1.2246333e-05 -0.00038972866
 
Iteration Number = 6

DILUPBiCG:  Solving for Ux, Initial residual = 0.073973168, Final residual = 8.4604222e-07, No Iterations 2
DILUPBiCG:  Solving for Uy, Initial residual = 0.05425396, Final residual = 6.1867257e-07, No Iterations 2
DILUPBiCG:  Solving for Uz, Initial residual = 0.12511984, Final residual = 1.381129e-06, No Iterations 2
DILUPBiCG:  Solving for h, Initial residual = 0.06388672, Final residual = 5.5076159e-05, No Iterations 6
sngrad(rho) : 6.903623e-310 1.4751331e-312 0
GAMG:  Solving for p_rgh, Initial residual = 0.51069287, Final residual = 0.037964936, No Iterations 3
sngrad(rho) : 6.903623e-310 1.4751331e-312 0
sngrad(rho) : 6.903623e-310 1.4751331e-312 0
time step continuity errors : sum local = 0.28183162, global = 0.0019450609, cumulative = 0.0066830615
ExecutionTime = 2.76 s  ClockTime = 3 s
Inflow      : -4.6042465e-09 [kg/s]
Outflow     : 2.4530152e-07 [kg/s]
EnergyInflow  : -0.0013895616 [W]
EnergyOutflow : 0.074180793 [W]
EnergyBalance : 0.075570354 [W]
rho max/avg/min : 1.1764057 1.173499 1.1667107
T   max/avg/min : 302.46065 300.72922 300.00137
P   max/avg/min : 101324.94 101319.24 101313.52
Prg max/avg/min : 101325.02 101325 101324.91
U   max/avg/min : 0.003670879 1.597927e-05 -0.00056467431
 
Iteration Number = 7

DILUPBiCG:  Solving for Ux, Initial residual = 0.10423545, Final residual = 1.1150877e-06, No Iterations 2
DILUPBiCG:  Solving for Uy, Initial residual = 0.072631602, Final residual = 7.0616807e-07, No Iterations 2
DILUPBiCG:  Solving for Uz, Initial residual = 0.11677782, Final residual = 1.3195831e-06, No Iterations 2
DILUPBiCG:  Solving for h, Initial residual = 0.055197064, Final residual = 4.6380818e-05, No Iterations 6
sngrad(rho) : 6.903623e-310 1.4751331e-312 0
GAMG:  Solving for p_rgh, Initial residual = 0.44865744, Final residual = 0.035332658, No Iterations 3
sngrad(rho) : 6.903623e-310 1.4751331e-312 0
sngrad(rho) : 6.903623e-310 1.4751331e-312 0
time step continuity errors : sum local = 0.28062625, global = 0.0023381701, cumulative = 0.0090212316
ExecutionTime = 3.21 s  ClockTime = 3 s
Inflow      : -5.9244363e-09 [kg/s]
Outflow     : 2.9448887e-07 [kg/s]
EnergyInflow  : -0.0017879949 [W]
EnergyOutflow : 0.089098945 [W]
EnergyBalance : 0.09088694 [W]
rho max/avg/min : 1.1764017 1.1730187 1.1657985
T   max/avg/min : 302.69734 300.85279 300.00239
P   max/avg/min : 101324.94 101319.24 101313.51
Prg max/avg/min : 101325.02 101325 101324.9
U   max/avg/min : 0.0047079992 2.0371116e-05 -0.00074005127
 
Iteration Number = 8

DILUPBiCG:  Solving for Ux, Initial residual = 0.13337094, Final residual = 1.2939598e-06, No Iterations 2
DILUPBiCG:  Solving for Uy, Initial residual = 0.097629545, Final residual = 6.3657278e-07, No Iterations 2
DILUPBiCG:  Solving for Uz, Initial residual = 0.1061578, Final residual = 1.2190172e-06, No Iterations 2
DILUPBiCG:  Solving for h, Initial residual = 0.048596993, Final residual = 4.2221387e-05, No Iterations 7
sngrad(rho) : 6.903623e-310 1.4751331e-312 0
GAMG:  Solving for p_rgh, Initial residual = 0.39186639, Final residual = 0.032579687, No Iterations 3
sngrad(rho) : 6.903623e-310 1.4751331e-312 0
sngrad(rho) : 6.903623e-310 1.4751331e-312 0
time step continuity errors : sum local = 0.26529257, global = 0.0027373039, cumulative = 0.011758535
ExecutionTime = 3.69 s  ClockTime = 4 s
Inflow      : -6.7113195e-09 [kg/s]
Outflow     : 3.4498359e-07 [kg/s]
EnergyInflow  : -0.0020254762 [W]
EnergyOutflow : 0.10442947 [W]
EnergyBalance : 0.10645495 [W]
rho max/avg/min : 1.1763959 1.1725393 1.1649037
T   max/avg/min : 302.92992 300.9763 300.00385
P   max/avg/min : 101324.94 101319.24 101313.51
Prg max/avg/min : 101325.03 101325 101324.89
U   max/avg/min : 0.0057914146 2.5444106e-05 -0.00093451554
 
Iteration Number = 9

DILUPBiCG:  Solving for Ux, Initial residual = 0.1400863, Final residual = 1.2338616e-06, No Iterations 2
DILUPBiCG:  Solving for Uy, Initial residual = 0.12315722, Final residual = 8.3639846e-07, No Iterations 2
DILUPBiCG:  Solving for Uz, Initial residual = 0.095030999, Final residual = 1.1037061e-06, No Iterations 2
DILUPBiCG:  Solving for h, Initial residual = 0.043386367, Final residual = 2.1835343e-05, No Iterations 7
sngrad(rho) : 6.903623e-310 1.4751331e-312 0
GAMG:  Solving for p_rgh, Initial residual = 0.41922664, Final residual = 0.02931032, No Iterations 3
sngrad(rho) : 6.903623e-310 1.4751331e-312 0
sngrad(rho) : 6.903623e-310 1.4751331e-312 0
time step continuity errors : sum local = 0.24001069, global = 0.0031419425, cumulative = 0.014900478
ExecutionTime = 4.2 s  ClockTime = 4 s
Inflow      : -7.4609477e-09 [kg/s]
Outflow     : 3.9622284e-07 [kg/s]
EnergyInflow  : -0.002251714 [W]
EnergyOutflow : 0.12000268 [W]
EnergyBalance : 0.1222544 [W]
rho max/avg/min : 1.1763882 1.1720617 1.1640175
T   max/avg/min : 303.16053 301.09946 300.00582
P   max/avg/min : 101324.94 101319.25 101313.52
Prg max/avg/min : 101325.03 101325 101324.89
U   max/avg/min : 0.0069096417 3.1218965e-05 -0.0011750506
 
Iteration Number = 10

DILUPBiCG:  Solving for Ux, Initial residual = 0.12241234, Final residual = 1.0010819e-06, No Iterations 2
DILUPBiCG:  Solving for Uy, Initial residual = 0.14226384, Final residual = 1.263803e-06, No Iterations 2
DILUPBiCG:  Solving for Uz, Initial residual = 0.084579901, Final residual = 9.9004947e-07, No Iterations 2
DILUPBiCG:  Solving for h, Initial residual = 0.039197444, Final residual = 2.1924165e-05, No Iterations 7
sngrad(rho) : 6.903623e-310 1.4751331e-312 0
GAMG:  Solving for p_rgh, Initial residual = 0.44192636, Final residual = 0.026379229, No Iterations 3
sngrad(rho) : 6.903623e-310 1.4751331e-312 0
sngrad(rho) : 6.903623e-310 1.4751331e-312 0
time step continuity errors : sum local = 0.21600082, global = 0.0035506423, cumulative = 0.01845112
ExecutionTime = 4.68 s  ClockTime = 5 s
Inflow      : -8.2309216e-09 [kg/s]
Outflow     : 4.4796352e-07 [kg/s]
EnergyInflow  : -0.0024840922 [W]
EnergyOutflow : 0.13574504 [W]
EnergyBalance : 0.13822913 [W]
rho max/avg/min : 1.1763782 1.171587 1.1631372
T   max/avg/min : 303.38977 301.22204 300.00837
P   max/avg/min : 101324.94 101319.25 101313.52
Prg max/avg/min : 101325.04 101325 101324.89
U   max/avg/min : 0.0080551531 3.7719036e-05 -0.0014039895
 
Iteration Number = 11

DILUPBiCG:  Solving for Ux, Initial residual = 0.092398585, Final residual = 7.3214284e-07, No Iterations 2
DILUPBiCG:  Solving for Uy, Initial residual = 0.15440171, Final residual = 1.5981798e-06, No Iterations 2
DILUPBiCG:  Solving for Uz, Initial residual = 0.075444236, Final residual = 8.8848756e-07, No Iterations 2
DILUPBiCG:  Solving for h, Initial residual = 0.035777785, Final residual = 2.187459e-05, No Iterations 7
sngrad(rho) : 6.903623e-310 1.4751331e-312 0
GAMG:  Solving for p_rgh, Initial residual = 0.43061808, Final residual = 0.024844896, No Iterations 3
sngrad(rho) : 6.903623e-310 1.4751331e-312 0
sngrad(rho) : 6.903623e-310 1.4751331e-312 0
time step continuity errors : sum local = 0.2033008, global = 0.0039640311, cumulative = 0.022415151
ExecutionTime = 5.12 s  ClockTime = 5 s
Inflow      : -9.0155594e-09 [kg/s]
Outflow     : 5.00292e-07 [kg/s]
EnergyInflow  : -0.0027208958 [W]
EnergyOutflow : 0.15168246 [W]
EnergyBalance : 0.15440336 [W]
rho max/avg/min : 1.1763658 1.1711154 1.1622603
T   max/avg/min : 303.61846 301.34394 300.01153
P   max/avg/min : 101324.94 101319.25 101313.53
Prg max/avg/min : 101325.04 101325 101324.89
U   max/avg/min : 0.0092267806 4.4983873e-05 -0.0016043383
 
Iteration Number = 12

DILUPBiCG:  Solving for Ux, Initial residual = 0.059500518, Final residual = 5.0803168e-07, No Iterations 2
DILUPBiCG:  Solving for Uy, Initial residual = 0.15939272, Final residual = 1.8210876e-06, No Iterations 2
DILUPBiCG:  Solving for Uz, Initial residual = 0.068595802, Final residual = 8.1143669e-07, No Iterations 2
DILUPBiCG:  Solving for h, Initial residual = 0.032940413, Final residual = 2.1185561e-05, No Iterations 7
sngrad(rho) : 6.903623e-310 1.4751331e-312 0
GAMG:  Solving for p_rgh, Initial residual = 0.38890626, Final residual = 0.023772855, No Iterations 3
sngrad(rho) : 6.903623e-310 1.4751331e-312 0
sngrad(rho) : 6.903623e-310 1.4751331e-312 0
time step continuity errors : sum local = 0.19394665, global = 0.0043821473, cumulative = 0.026797299
ExecutionTime = 5.56 s  ClockTime = 6 s
Inflow      : -9.7690544e-09 [kg/s]
Outflow     : 5.5325901e-07 [kg/s]
EnergyInflow  : -0.0029483006 [W]
EnergyOutflow : 0.16783021 [W]
EnergyBalance : 0.17077851 [W]
rho max/avg/min : 1.1763508 1.1706473 1.161386
T   max/avg/min : 303.84702 301.4651 300.01536
P   max/avg/min : 101324.94 101319.25 101313.54
Prg max/avg/min : 101325.05 101325 101324.89
U   max/avg/min : 0.010418578 5.307978e-05 -0.0017601901
 
Iteration Number = 13

DILUPBiCG:  Solving for Ux, Initial residual = 0.039424962, Final residual = 3.5657836e-07, No Iterations 2
DILUPBiCG:  Solving for Uy, Initial residual = 0.17347495, Final residual = 2.0597097e-06, No Iterations 2
DILUPBiCG:  Solving for Uz, Initial residual = 0.063942307, Final residual = 7.6022402e-07, No Iterations 2
DILUPBiCG:  Solving for h, Initial residual = 0.030550905, Final residual = 1.9390642e-05, No Iterations 7
sngrad(rho) : 6.903623e-310 1.4751331e-312 0
GAMG:  Solving for p_rgh, Initial residual = 0.33172991, Final residual = 0.02259004, No Iterations 3
sngrad(rho) : 6.903623e-310 1.4751331e-312 0
sngrad(rho) : 6.903623e-310 1.4751331e-312 0
time step continuity errors : sum local = 0.18298138, global = 0.0048052509, cumulative = 0.03160255
ExecutionTime = 6.01 s  ClockTime = 6 s
Inflow      : -1.045986e-08 [kg/s]
Outflow     : 6.069295e-07 [kg/s]
EnergyInflow  : -0.0031567858 [W]
EnergyOutflow : 0.18420779 [W]
EnergyBalance : 0.18736457 [W]
rho max/avg/min : 1.1763332 1.1701826 1.1605133
T   max/avg/min : 304.07561 301.5855 300.01987
P   max/avg/min : 101324.94 101319.26 101313.54
Prg max/avg/min : 101325.05 101325 101324.89
U   max/avg/min : 0.011621372 6.2105355e-05 -0.0018710202
 
Iteration Number = 14

DILUPBiCG:  Solving for Ux, Initial residual = 0.048814133, Final residual = 3.6515291e-07, No Iterations 2
DILUPBiCG:  Solving for Uy, Initial residual = 0.19606877, Final residual = 2.1822958e-06, No Iterations 2
DILUPBiCG:  Solving for Uz, Initial residual = 0.060212426, Final residual = 7.2167246e-07, No Iterations 2
DILUPBiCG:  Solving for h, Initial residual = 0.02851702, Final residual = 1.5589283e-05, No Iterations 7
sngrad(rho) : 6.903623e-310 1.4751331e-312 0
GAMG:  Solving for p_rgh, Initial residual = 0.27059416, Final residual = 0.022031819, No Iterations 3
sngrad(rho) : 6.903623e-310 1.4751331e-312 0
sngrad(rho) : 6.903623e-310 1.4751331e-312 0
time step continuity errors : sum local = 0.17712683, global = 0.0052344866, cumulative = 0.036837036
ExecutionTime = 6.45 s  ClockTime = 6 s
Inflow      : -1.1062932e-08 [kg/s]
Outflow     : 6.6147558e-07 [kg/s]
EnergyInflow  : -0.0033387929 [W]
EnergyOutflow : 0.20086719 [W]
EnergyBalance : 0.20420598 [W]
rho max/avg/min : 1.1763127 1.1697213 1.159643
T   max/avg/min : 304.30413 301.70515 300.02508
P   max/avg/min : 101324.94 101319.26 101313.54
Prg max/avg/min : 101325.06 101325 101324.89
U   max/avg/min : 0.012853366 7.2194223e-05 -0.0019254616
 
Iteration Number = 15

DILUPBiCG:  Solving for Ux, Initial residual = 0.067628846, Final residual = 4.7190562e-07, No Iterations 2
DILUPBiCG:  Solving for Uy, Initial residual = 0.20957759, Final residual = 2.0494054e-06, No Iterations 2
DILUPBiCG:  Solving for Uz, Initial residual = 0.057110853, Final residual = 6.905064e-07, No Iterations 2
DILUPBiCG:  Solving for h, Initial residual = 0.026768175, Final residual = 1.0139304e-05, No Iterations 7
sngrad(rho) : 6.903623e-310 1.4751331e-312 0
GAMG:  Solving for p_rgh, Initial residual = 0.21282008, Final residual = 0.018433697, No Iterations 4
sngrad(rho) : 6.903623e-310 1.4751331e-312 0
sngrad(rho) : 6.903623e-310 1.4751331e-312 0
time step continuity errors : sum local = 0.15069623, global = -0.0043040261, cumulative = 0.03253301
ExecutionTime = 6.9 s  ClockTime = 7 s
Inflow      : 1.2700786e-06 [kg/s]
Outflow     : 7.1708772e-07 [kg/s]
EnergyInflow  : 0.38330972 [W]
EnergyOutflow : 0.21786607 [W]
EnergyBalance : -0.16544365 [W]
rho max/avg/min : 1.1762894 1.1692633 1.1587732
T   max/avg/min : 304.53256 301.82411 300.03101
P   max/avg/min : 101324.93 101319.25 101313.53
Prg max/avg/min : 101325.04 101324.98 101324.87
U   max/avg/min : 0.014136262 8.9484147e-05 -0.0018850123
 
Iteration Number = 16

DILUPBiCG:  Solving for Ux, Initial residual = 0.080516266, Final residual = 6.0168253e-07, No Iterations 2
DILUPBiCG:  Solving for Uy, Initial residual = 0.19689393, Final residual = 1.5463584e-06, No Iterations 2
DILUPBiCG:  Solving for Uz, Initial residual = 0.064453721, Final residual = 7.5087574e-07, No Iterations 2
DILUPBiCG:  Solving for h, Initial residual = 0.025130468, Final residual = 7.6211616e-06, No Iterations 7
sngrad(rho) : 6.903623e-310 1.4751331e-312 0
GAMG:  Solving for p_rgh, Initial residual = 0.19624869, Final residual = 0.019539865, No Iterations 3
sngrad(rho) : 6.903623e-310 1.4751331e-312 0
sngrad(rho) : 6.903623e-310 1.4751331e-312 0
time step continuity errors : sum local = 0.16566571, global = 0.0051378536, cumulative = 0.037670864
ExecutionTime = 7.34 s  ClockTime = 7 s
Inflow      : 1.1190071e-07 [kg/s]
Outflow     : 7.7202361e-07 [kg/s]
EnergyInflow  : 0.033771635 [W]
EnergyOutflow : 0.23467602 [W]
EnergyBalance : 0.20090438 [W]
rho max/avg/min : 1.1762633 1.1688111 1.1579069
T   max/avg/min : 304.76032 301.94165 300.03765
P   max/avg/min : 101324.93 101319.25 101313.53
Prg max/avg/min : 101325.04 101324.98 101324.85
U   max/avg/min : 0.015312905 0.00011020927 -0.0017541123
 
Iteration Number = 17

DILUPBiCG:  Solving for Ux, Initial residual = 0.079320849, Final residual = 6.3379213e-07, No Iterations 2
DILUPBiCG:  Solving for Uy, Initial residual = 0.1756477, Final residual = 1.3781068e-06, No Iterations 2
DILUPBiCG:  Solving for Uz, Initial residual = 0.058719457, Final residual = 7.1487284e-07, No Iterations 2
DILUPBiCG:  Solving for h, Initial residual = 0.023891835, Final residual = 5.5730665e-06, No Iterations 7
sngrad(rho) : 6.903623e-310 1.4751331e-312 0
GAMG:  Solving for p_rgh, Initial residual = 0.2012342, Final residual = 0.017998076, No Iterations 3
sngrad(rho) : 6.903623e-310 1.4751331e-312 0
sngrad(rho) : 6.903623e-310 1.4751331e-312 0
time step continuity errors : sum local = 0.15964233, global = 0.0053452469, cumulative = 0.043016111
ExecutionTime = 7.79 s  ClockTime = 8 s
Inflow      : 1.4545282e-07 [kg/s]
Outflow     : 8.3222206e-07 [kg/s]
EnergyInflow  : 0.04389766 [W]
EnergyOutflow : 0.25309548 [W]
EnergyBalance : 0.20919783 [W]
rho max/avg/min : 1.1762346 1.1683593 1.157043
T   max/avg/min : 304.98784 302.05925 300.04498
P   max/avg/min : 101324.93 101319.25 101313.53
Prg max/avg/min : 101325.04 101324.98 101324.84
U   max/avg/min : 0.016586496 0.00013362665 -0.0018634441
 
Iteration Number = 18

DILUPBiCG:  Solving for Ux, Initial residual = 0.066860465, Final residual = 5.634338e-07, No Iterations 2
DILUPBiCG:  Solving for Uy, Initial residual = 0.14313918, Final residual = 1.4914801e-06, No Iterations 2
DILUPBiCG:  Solving for Uz, Initial residual = 0.05405113, Final residual = 6.5703632e-07, No Iterations 2
DILUPBiCG:  Solving for h, Initial residual = 0.022713413, Final residual = 4.254825e-06, No Iterations 7
sngrad(rho) : 6.903623e-310 1.4751331e-312 0
GAMG:  Solving for p_rgh, Initial residual = 0.19476933, Final residual = 0.015845034, No Iterations 3
sngrad(rho) : 6.903623e-310 1.4751331e-312 0
sngrad(rho) : 6.903623e-310 1.4751331e-312 0
time step continuity errors : sum local = 0.14720002, global = 0.0057958547, cumulative = 0.048811965
ExecutionTime = 8.24 s  ClockTime = 8 s
Inflow      : 1.4807993e-07 [kg/s]
Outflow     : 8.9274427e-07 [kg/s]
EnergyInflow  : 0.044690523 [W]
EnergyOutflow : 0.27163304 [W]
EnergyBalance : 0.22694251 [W]
rho max/avg/min : 1.1762032 1.16791 1.1561823
T   max/avg/min : 305.21487 302.1763 300.05298
P   max/avg/min : 101324.94 101319.25 101313.53
Prg max/avg/min : 101325.04 101324.98 101324.82
U   max/avg/min : 0.017848935 0.0001601656 -0.0019762871
 
Iteration Number = 19

DILUPBiCG:  Solving for Ux, Initial residual = 0.049117862, Final residual = 4.6069516e-07, No Iterations 2
DILUPBiCG:  Solving for Uy, Initial residual = 0.099795143, Final residual = 1.3296578e-06, No Iterations 2
DILUPBiCG:  Solving for Uz, Initial residual = 0.050197665, Final residual = 6.0760697e-07, No Iterations 2
DILUPBiCG:  Solving for h, Initial residual = 0.021662643, Final residual = 3.8992729e-06, No Iterations 7
sngrad(rho) : 6.903623e-310 1.4751331e-312 0
GAMG:  Solving for p_rgh, Initial residual = 0.1727691, Final residual = 0.013410746, No Iterations 3
sngrad(rho) : 6.903623e-310 1.4751331e-312 0
sngrad(rho) : 6.903623e-310 1.4751331e-312 0
time step continuity errors : sum local = 0.12971043, global = 0.0067023949, cumulative = 0.05551436
ExecutionTime = 8.72 s  ClockTime = 9 s
Inflow      : 9.3808617e-08 [kg/s]
Outflow     : 9.5494726e-07 [kg/s]
EnergyInflow  : 0.028311441 [W]
EnergyOutflow : 0.29069772 [W]
EnergyBalance : 0.26238628 [W]
rho max/avg/min : 1.1761693 1.1674632 1.155324
T   max/avg/min : 305.44158 302.29285 300.06163
P   max/avg/min : 101324.94 101319.25 101313.52
Prg max/avg/min : 101325.04 101324.97 101324.79
U   max/avg/min : 0.019116925 0.00019090942 -0.0020532673
 
Iteration Number = 20

DILUPBiCG:  Solving for Ux, Initial residual = 0.03524231, Final residual = 3.8368896e-07, No Iterations 2
DILUPBiCG:  Solving for Uy, Initial residual = 0.089465311, Final residual = 1.2226623e-06, No Iterations 2
DILUPBiCG:  Solving for Uz, Initial residual = 0.047165709, Final residual = 5.6987883e-07, No Iterations 2
DILUPBiCG:  Solving for h, Initial residual = 0.020705734, Final residual = 9.5782543e-06, No Iterations 7
sngrad(rho) : 6.903623e-310 1.4751331e-312 0
GAMG:  Solving for p_rgh, Initial residual = 0.14908479, Final residual = 0.011420403, No Iterations 3
sngrad(rho) : 6.903623e-310 1.4751331e-312 0
sngrad(rho) : 6.903623e-310 1.4751331e-312 0
time step continuity errors : sum local = 0.11423894, global = 0.0071398445, cumulative = 0.062654205
ExecutionTime = 9.18 s  ClockTime = 9 s
Inflow      : 1.0058729e-07 [kg/s]
Outflow     : 1.0179304e-06 [kg/s]
EnergyInflow  : 0.030357244 [W]
EnergyOutflow : 0.31001678 [W]
EnergyBalance : 0.27965954 [W]
rho max/avg/min : 1.176133 1.1670193 1.154468
T   max/avg/min : 305.66801 302.40878 300.07093
P   max/avg/min : 101324.94 101319.25 101313.51
Prg max/avg/min : 101325.04 101324.97 101324.77
U   max/avg/min : 0.020355289 0.00022569358 -0.0020921461
 
Iteration Number = 21

DILUPBiCG:  Solving for Ux, Initial residual = 0.042013653, Final residual = 4.008134e-07, No Iterations 2
DILUPBiCG:  Solving for Uy, Initial residual = 0.11269104, Final residual = 1.2116463e-06, No Iterations 2
DILUPBiCG:  Solving for Uz, Initial residual = 0.045311097, Final residual = 5.4726001e-07, No Iterations 2
DILUPBiCG:  Solving for h, Initial residual = 0.019840993, Final residual = 3.4141317e-06, No Iterations 7
sngrad(rho) : 6.903623e-310 1.4751331e-312 0
GAMG:  Solving for p_rgh, Initial residual = 0.13164001, Final residual = 0.012889652, No Iterations 3
sngrad(rho) : 6.903623e-310 1.4751331e-312 0
sngrad(rho) : 6.903623e-310 1.4751331e-312 0
time step continuity errors : sum local = 0.13215475, global = -0.0044795965, cumulative = 0.058174608
ExecutionTime = 9.66 s  ClockTime = 10 s
Inflow      : 1.6578348e-06 [kg/s]
Outflow     : 1.0822862e-06 [kg/s]
EnergyInflow  : 0.50033454 [W]
EnergyOutflow : 0.32976935 [W]
EnergyBalance : -0.17056518 [W]
rho max/avg/min : 1.1760941 1.1665778 1.1536144
T   max/avg/min : 305.89414 302.5242 300.08085
P   max/avg/min : 101324.93 101319.23 101313.48
Prg max/avg/min : 101325.02 101324.95 101324.74
U   max/avg/min : 0.021586765 0.00026974366 -0.0021011901
 
Iteration Number = 22

DILUPBiCG:  Solving for Ux, Initial residual = 0.05622735, Final residual = 4.4752167e-07, No Iterations 2
DILUPBiCG:  Solving for Uy, Initial residual = 0.14061473, Final residual = 1.2408778e-06, No Iterations 2
DILUPBiCG:  Solving for Uz, Initial residual = 0.047345261, Final residual = 5.5414129e-07, No Iterations 2
DILUPBiCG:  Solving for h, Initial residual = 0.019104888, Final residual = 3.2648643e-06, No Iterations 7
sngrad(rho) : 6.903623e-310 1.4751331e-312 0
GAMG:  Solving for p_rgh, Initial residual = 0.1158463, Final residual = 0.011399009, No Iterations 3
sngrad(rho) : 6.903623e-310 1.4751331e-312 0
sngrad(rho) : 6.903623e-310 1.4751331e-312 0
time step continuity errors : sum local = 0.1190887, global = -0.0047922935, cumulative = 0.053382315
ExecutionTime = 10.12 s  ClockTime = 10 s
Inflow      : 1.7660299e-06 [kg/s]
Outflow     : 1.1503054e-06 [kg/s]
EnergyInflow  : 0.53298783 [W]
EnergyOutflow : 0.35065275 [W]
EnergyBalance : -0.18233508 [W]
rho max/avg/min : 1.1760528 1.1661377 1.1527622
T   max/avg/min : 306.12023 302.63931 300.09136
P   max/avg/min : 101324.92 101319.21 101313.46
Prg max/avg/min : 101325 101324.93 101324.71
U   max/avg/min : 0.022914331 0.00032425552 -0.002073168
 
Iteration Number = 23

DILUPBiCG:  Solving for Ux, Initial residual = 0.065423971, Final residual = 4.9851699e-07, No Iterations 2
DILUPBiCG:  Solving for Uy, Initial residual = 0.15938106, Final residual = 1.2465543e-06, No Iterations 2
DILUPBiCG:  Solving for Uz, Initial residual = 0.04855682, Final residual = 5.5669966e-07, No Iterations 2
DILUPBiCG:  Solving for h, Initial residual = 0.018351462, Final residual = 4.4592727e-06, No Iterations 7
sngrad(rho) : 6.903623e-310 1.4751331e-312 0
GAMG:  Solving for p_rgh, Initial residual = 0.10954174, Final residual = 0.0099641124, No Iterations 3
sngrad(rho) : 6.903623e-310 1.4751331e-312 0
sngrad(rho) : 6.903623e-310 1.4751331e-312 0
time step continuity errors : sum local = 0.10523016, global = -0.0052825555, cumulative = 0.048099759
ExecutionTime = 10.57 s  ClockTime = 11 s
Inflow      : 1.8953845e-06 [kg/s]
Outflow     : 1.21667e-06 [kg/s]
EnergyInflow  : 0.57202705 [W]
EnergyOutflow : 0.37105587 [W]
EnergyBalance : -0.20097117 [W]
rho max/avg/min : 1.1760094 1.1657009 1.1519117
T   max/avg/min : 306.34609 302.75368 300.10239
P   max/avg/min : 101324.91 101319.2 101313.43
Prg max/avg/min : 101324.98 101324.92 101324.68
U   max/avg/min : 0.024197354 0.0003899374 -0.0020080177
 
Iteration Number = 24

DILUPBiCG:  Solving for Ux, Initial residual = 0.064965241, Final residual = 5.0617299e-07, No Iterations 2
DILUPBiCG:  Solving for Uy, Initial residual = 0.15925235, Final residual = 1.3348629e-06, No Iterations 2
DILUPBiCG:  Solving for Uz, Initial residual = 0.048942622, Final residual = 5.5393486e-07, No Iterations 2
DILUPBiCG:  Solving for h, Initial residual = 0.017654548, Final residual = 1.32266e-05, No Iterations 6
sngrad(rho) : 6.903623e-310 1.4751331e-312 0
GAMG:  Solving for p_rgh, Initial residual = 0.11345753, Final residual = 0.0089131128, No Iterations 3
sngrad(rho) : 6.903623e-310 1.4751331e-312 0
sngrad(rho) : 6.903623e-310 1.4751331e-312 0
time step continuity errors : sum local = 0.094888552, global = -0.0057948994, cumulative = 0.04230486
ExecutionTime = 11.02 s  ClockTime = 11 s
Inflow      : 2.0275978e-06 [kg/s]
Outflow     : 1.2830562e-06 [kg/s]
EnergyInflow  : 0.61192902 [W]
EnergyOutflow : 0.39148052 [W]
EnergyBalance : -0.2204485 [W]
rho max/avg/min : 1.1759644 1.1652677 1.151062
T   max/avg/min : 306.57188 302.86724 300.11384
P   max/avg/min : 101324.91 101319.18 101313.41
Prg max/avg/min : 101324.96 101324.9 101324.64
U   max/avg/min : 0.025773587 0.00046790562 -0.001913756
 
Iteration Number = 25

DILUPBiCG:  Solving for Ux, Initial residual = 0.057329137, Final residual = 4.7468896e-07, No Iterations 2
DILUPBiCG:  Solving for Uy, Initial residual = 0.14183107, Final residual = 1.4498346e-06, No Iterations 2
DILUPBiCG:  Solving for Uz, Initial residual = 0.049304356, Final residual = 5.5366018e-07, No Iterations 2
DILUPBiCG:  Solving for h, Initial residual = 0.017010049, Final residual = 1.2778674e-05, No Iterations 6
sngrad(rho) : 6.903623e-310 1.4751331e-312 0
GAMG:  Solving for p_rgh, Initial residual = 0.11410915, Final residual = 0.008193087, No Iterations 3
sngrad(rho) : 6.903623e-310 1.4751331e-312 0
sngrad(rho) : 6.903623e-310 1.4751331e-312 0
time step continuity errors : sum local = 0.088226577, global = -0.0066190635, cumulative = 0.035685796
ExecutionTime = 11.47 s  ClockTime = 12 s
Inflow      : 2.2000275e-06 [kg/s]
Outflow     : 1.3495954e-06 [kg/s]
EnergyInflow  : 0.66396829 [W]
EnergyOutflow : 0.41196596 [W]
EnergyBalance : -0.25200233 [W]
rho max/avg/min : 1.1759181 1.1648382 1.1502144
T   max/avg/min : 306.7977 302.97996 300.12564
P   max/avg/min : 101324.9 101319.16 101313.38
Prg max/avg/min : 101324.96 101324.88 101324.61
U   max/avg/min : 0.032977174 0.00055934492 -0.001768909
 
Iteration Number = 26

DILUPBiCG:  Solving for Ux, Initial residual = 0.047778124, Final residual = 4.2916821e-07, No Iterations 2
DILUPBiCG:  Solving for Uy, Initial residual = 0.11951821, Final residual = 1.4910125e-06, No Iterations 2
DILUPBiCG:  Solving for Uz, Initial residual = 0.049813598, Final residual = 5.586211e-07, No Iterations 2
DILUPBiCG:  Solving for h, Initial residual = 0.016407891, Final residual = 1.2096847e-05, No Iterations 6
sngrad(rho) : 6.903623e-310 1.4751331e-312 0
GAMG:  Solving for p_rgh, Initial residual = 0.10932692, Final residual = 0.0077179689, No Iterations 3
sngrad(rho) : 6.903623e-310 1.4751331e-312 0
sngrad(rho) : 6.903623e-310 1.4751331e-312 0
time step continuity errors : sum local = 0.083941017, global = -0.0069946134, cumulative = 0.028691183
ExecutionTime = 11.94 s  ClockTime = 12 s
Inflow      : 2.3147127e-06 [kg/s]
Outflow     : 1.4160291e-06 [kg/s]
EnergyInflow  : 0.69858028 [W]
EnergyOutflow : 0.43243299 [W]
EnergyBalance : -0.26614729 [W]
rho max/avg/min : 1.1758709 1.1644126 1.1493694
T   max/avg/min : 307.02543 303.09176 300.13769
P   max/avg/min : 101324.9 101319.14 101313.35
Prg max/avg/min : 101324.96 101324.86 101324.57
U   max/avg/min : 0.039936164 0.00066521274 -0.0016137596
 
Iteration Number = 27

DILUPBiCG:  Solving for Ux, Initial residual = 0.038897633, Final residual = 4.1175628e-07, No Iterations 2
DILUPBiCG:  Solving for Uy, Initial residual = 0.10357709, Final residual = 1.4579007e-06, No Iterations 2
DILUPBiCG:  Solving for Uz, Initial residual = 0.050150581, Final residual = 5.6733264e-07, No Iterations 2
DILUPBiCG:  Solving for h, Initial residual = 0.015856967, Final residual = 1.1398427e-05, No Iterations 6
sngrad(rho) : 6.903623e-310 1.4751331e-312 0
GAMG:  Solving for p_rgh, Initial residual = 0.1009284, Final residual = 0.0097451162, No Iterations 2
sngrad(rho) : 6.903623e-310 1.4751331e-312 0
sngrad(rho) : 6.903623e-310 1.4751331e-312 0
time step continuity errors : sum local = 0.10716309, global = 0.005244437, cumulative = 0.03393562
ExecutionTime = 12.42 s  ClockTime = 13 s
Inflow      : 8.0899844e-07 [kg/s]
Outflow     : 1.4828154e-06 [kg/s]
EnergyInflow  : 0.24415573 [W]
EnergyOutflow : 0.45302009 [W]
EnergyBalance : 0.20886436 [W]
rho max/avg/min : 1.175823 1.1639905 1.1485262
T   max/avg/min : 307.25594 303.20275 300.14992
P   max/avg/min : 101324.92 101319.15 101313.34
Prg max/avg/min : 101324.98 101324.86 101324.55
U   max/avg/min : 0.043481164 0.00077764527 -0.0014448723
 
Iteration Number = 28

DILUPBiCG:  Solving for Ux, Initial residual = 0.044153749, Final residual = 4.3913701e-07, No Iterations 2
DILUPBiCG:  Solving for Uy, Initial residual = 0.10275137, Final residual = 1.4026093e-06, No Iterations 2
DILUPBiCG:  Solving for Uz, Initial residual = 0.046469473, Final residual = 5.5525221e-07, No Iterations 2
DILUPBiCG:  Solving for h, Initial residual = 0.015462128, Final residual = 1.356133e-05, No Iterations 6
sngrad(rho) : 6.903623e-310 1.4751331e-312 0
GAMG:  Solving for p_rgh, Initial residual = 0.090076915, Final residual = 0.0089494804, No Iterations 2
sngrad(rho) : 6.903623e-310 1.4751331e-312 0
sngrad(rho) : 6.903623e-310 1.4751331e-312 0
time step continuity errors : sum local = 0.099670601, global = 0.0066416943, cumulative = 0.040577314
ExecutionTime = 12.83 s  ClockTime = 13 s
Inflow      : 6.9956787e-07 [kg/s]
Outflow     : 1.5529076e-06 [kg/s]
EnergyInflow  : 0.21112958 [W]
EnergyOutflow : 0.47462734 [W]
EnergyBalance : 0.26349776 [W]
rho max/avg/min : 1.1757748 1.1635672 1.1476858
T   max/avg/min : 307.48712 303.31423 300.16226
P   max/avg/min : 101324.94 101319.15 101313.33
Prg max/avg/min : 101325 101324.86 101324.54
U   max/avg/min : 0.043195479 0.00089563281 -0.0012599257
 
Iteration Number = 29

DILUPBiCG:  Solving for Ux, Initial residual = 0.053939445, Final residual = 4.8764803e-07, No Iterations 2
DILUPBiCG:  Solving for Uy, Initial residual = 0.1147531, Final residual = 1.3861909e-06, No Iterations 2
DILUPBiCG:  Solving for Uz, Initial residual = 0.044095853, Final residual = 5.3648041e-07, No Iterations 2
DILUPBiCG:  Solving for h, Initial residual = 0.014983314, Final residual = 1.2433162e-05, No Iterations 6
sngrad(rho) : 6.903623e-310 1.4751331e-312 0
GAMG:  Solving for p_rgh, Initial residual = 0.079204157, Final residual = 0.006645023, No Iterations 3
sngrad(rho) : 6.903623e-310 1.4751331e-312 0
sngrad(rho) : 6.903623e-310 1.4751331e-312 0
time step continuity errors : sum local = 0.075084779, global = -0.0048330299, cumulative = 0.035744284
ExecutionTime = 13.25 s  ClockTime = 13 s
Inflow      : 2.2411186e-06 [kg/s]
Outflow     : 1.6201602e-06 [kg/s]
EnergyInflow  : 0.6763696 [W]
EnergyOutflow : 0.49539184 [W]
EnergyBalance : -0.18097776 [W]
rho max/avg/min : 1.1757263 1.1631474 1.1468472
T   max/avg/min : 307.71826 303.42491 300.1747
P   max/avg/min : 101324.94 101319.13 101313.3
Prg max/avg/min : 101325.01 101324.84 101324.49
U   max/avg/min : 0.04206664 0.0010277334 -0.0010465341
 
Iteration Number = 30

DILUPBiCG:  Solving for Ux, Initial residual = 0.060537465, Final residual = 5.4439673e-07, No Iterations 2
DILUPBiCG:  Solving for Uy, Initial residual = 0.12206731, Final residual = 1.2188061e-06, No Iterations 2
DILUPBiCG:  Solving for Uz, Initial residual = 0.045097537, Final residual = 5.4983815e-07, No Iterations 2
DILUPBiCG:  Solving for h, Initial residual = 0.014481684, Final residual = 1.0317314e-05, No Iterations 6
sngrad(rho) : 6.903623e-310 1.4751331e-312 0
GAMG:  Solving for p_rgh, Initial residual = 0.073059509, Final residual = 0.0062719882, No Iterations 3
sngrad(rho) : 6.903623e-310 1.4751331e-312 0
sngrad(rho) : 6.903623e-310 1.4751331e-312 0
time step continuity errors : sum local = 0.071842906, global = -0.0042634247, cumulative = 0.03148086
ExecutionTime = 13.71 s  ClockTime = 14 s
Inflow      : 2.2335494e-06 [kg/s]
Outflow     : 1.6857751e-06 [kg/s]
EnergyInflow  : 0.6740852 [W]
EnergyOutflow : 0.51566795 [W]
EnergyBalance : -0.15841725 [W]
rho max/avg/min : 1.1756772 1.1627337 1.1460101
T   max/avg/min : 307.94738 303.53405 300.18724
P   max/avg/min : 101324.94 101319.11 101313.26
Prg max/avg/min : 101325.01 101324.82 101324.45
U   max/avg/min : 0.040787061 0.0011767379 -0.00081117989
 
Iteration Number = 31

DILUPBiCG:  Solving for Ux, Initial residual = 0.059967677, Final residual = 5.7846127e-07, No Iterations 2
DILUPBiCG:  Solving for Uy, Initial residual = 0.11995273, Final residual = 1.0724207e-06, No Iterations 2
DILUPBiCG:  Solving for Uz, Initial residual = 0.045882031, Final residual = 5.6033801e-07, No Iterations 2
DILUPBiCG:  Solving for h, Initial residual = 0.014068102, Final residual = 1.1275022e-05, No Iterations 6
sngrad(rho) : 6.903623e-310 1.4751331e-312 0
GAMG:  Solving for p_rgh, Initial residual = 0.071347066, Final residual = 0.0065309248, No Iterations 3
sngrad(rho) : 6.903623e-310 1.4751331e-312 0
sngrad(rho) : 6.903623e-310 1.4751331e-312 0
time step continuity errors : sum local = 0.076355483, global = 0.0044191947, cumulative = 0.035900054
ExecutionTime = 14.16 s  ClockTime = 14 s
Inflow      : 1.1848807e-06 [kg/s]
Outflow     : 1.7526687e-06 [kg/s]
EnergyInflow  : 0.357597 [W]
EnergyOutflow : 0.53634166 [W]
EnergyBalance : 0.17874466 [W]
rho max/avg/min : 1.1756279 1.1623224 1.145175
T   max/avg/min : 308.17382 303.64265 300.19983
P   max/avg/min : 101324.95 101319.1 101313.23
Prg max/avg/min : 101325.02 101324.8 101324.41
U   max/avg/min : 0.037774583 0.0013386715 -0.00057961482
 
Iteration Number = 32

DILUPBiCG:  Solving for Ux, Initial residual = 0.052693042, Final residual = 5.6699162e-07, No Iterations 2
DILUPBiCG:  Solving for Uy, Initial residual = 0.1105644, Final residual = 9.5381588e-07, No Iterations 2
DILUPBiCG:  Solving for Uz, Initial residual = 0.046829808, Final residual = 5.6860724e-07, No Iterations 2
DILUPBiCG:  Solving for h, Initial residual = 0.013767904, Final residual = 1.6320509e-06, No Iterations 8
sngrad(rho) : 6.903623e-310 1.4751331e-312 0
GAMG:  Solving for p_rgh, Initial residual = 0.069712427, Final residual = 0.0067036589, No Iterations 3
sngrad(rho) : 6.903623e-310 1.4751331e-312 0
sngrad(rho) : 6.903623e-310 1.4751331e-312 0
time step continuity errors : sum local = 0.079715505, global = 0.0051475135, cumulative = 0.041047568
ExecutionTime = 14.61 s  ClockTime = 15 s
Inflow      : 1.1605991e-06 [kg/s]
Outflow     : 1.8219631e-06 [kg/s]
EnergyInflow  : 0.35026881 [W]
EnergyOutflow : 0.55776228 [W]
EnergyBalance : 0.20749347 [W]
rho max/avg/min : 1.1755786 1.1619099 1.1443407
T   max/avg/min : 308.39841 303.7517 300.21244
P   max/avg/min : 101324.96 101319.09 101313.2
Prg max/avg/min : 101325.03 101324.79 101324.38
U   max/avg/min : 0.034405847 0.0015117097 -0.00036814257
 
Iteration Number = 33

DILUPBiCG:  Solving for Ux, Initial residual = 0.044857319, Final residual = 5.7429372e-07, No Iterations 2
DILUPBiCG:  Solving for Uy, Initial residual = 0.097610433, Final residual = 7.8738927e-07, No Iterations 2
DILUPBiCG:  Solving for Uz, Initial residual = 0.046446518, Final residual = 5.6300201e-07, No Iterations 2
DILUPBiCG:  Solving for h, Initial residual = 0.013458742, Final residual = 3.7240811e-06, No Iterations 7
sngrad(rho) : 6.903623e-310 1.4751331e-312 0
GAMG:  Solving for p_rgh, Initial residual = 0.065887096, Final residual = 0.0055147685, No Iterations 5
sngrad(rho) : 6.903623e-310 1.4751331e-312 0
sngrad(rho) : 6.903623e-310 1.4751331e-312 0
time step continuity errors : sum local = 0.066551651, global = 0.0058422993, cumulative = 0.046889867
ExecutionTime = 15.05 s  ClockTime = 15 s
Inflow      : 1.1407286e-06 [kg/s]
Outflow     : 1.8913603e-06 [kg/s]
EnergyInflow  : 0.3442719 [W]
EnergyOutflow : 0.57923647 [W]
EnergyBalance : 0.23496457 [W]
rho max/avg/min : 1.1755292 1.161498 1.1435075
T   max/avg/min : 308.62051 303.8607 300.22508
P   max/avg/min : 101324.96 101319.07 101313.16
Prg max/avg/min : 101325.04 101324.77 101324.33
U   max/avg/min : 0.035546042 0.0017020391 -0.00018704264
 
Iteration Number = 34

DILUPBiCG:  Solving for Ux, Initial residual = 0.039724534, Final residual = 5.921031e-07, No Iterations 2
DILUPBiCG:  Solving for Uy, Initial residual = 0.08562464, Final residual = 8.2148736e-07, No Iterations 2
DILUPBiCG:  Solving for Uz, Initial residual = 0.046809424, Final residual = 5.689628e-07, No Iterations 2
DILUPBiCG:  Solving for h, Initial residual = 0.013089992, Final residual = 1.2047691e-05, No Iterations 6
sngrad(rho) : 6.903623e-310 1.4751331e-312 0
GAMG:  Solving for p_rgh, Initial residual = 0.061674225, Final residual = 0.0056542305, No Iterations 5
sngrad(rho) : 6.903623e-310 1.4751331e-312 0
sngrad(rho) : 6.903623e-310 1.4751331e-312 0
time step continuity errors : sum local = 0.068843059, global = 0.0067635395, cumulative = 0.053653407
ExecutionTime = 15.48 s  ClockTime = 16 s
Inflow      : 1.0892827e-06 [kg/s]
Outflow     : 1.9582773e-06 [kg/s]
EnergyInflow  : 0.32874551 [W]
EnergyOutflow : 0.59997286 [W]
EnergyBalance : 0.27122735 [W]
rho max/avg/min : 1.1754797 1.1610895 1.1426762
T   max/avg/min : 308.84003 303.96886 300.23775
P   max/avg/min : 101324.96 101319.05 101313.11
Prg max/avg/min : 101325.04 101324.74 101324.27
U   max/avg/min : 0.036611304 0.0019110621 -5.9932365e-05
 
Iteration Number = 35

DILUPBiCG:  Solving for Ux, Initial residual = 0.041012904, Final residual = 5.8449021e-07, No Iterations 2
DILUPBiCG:  Solving for Uy, Initial residual = 0.079467706, Final residual = 8.3045679e-07, No Iterations 2
DILUPBiCG:  Solving for Uz, Initial residual = 0.046223487, Final residual = 5.6420896e-07, No Iterations 2
DILUPBiCG:  Solving for h, Initial residual = 0.012807094, Final residual = 1.1353692e-05, No Iterations 6
sngrad(rho) : 6.903623e-310 1.4751331e-312 0
GAMG:  Solving for p_rgh, Initial residual = 0.057216515, Final residual = 0.0056840991, No Iterations 22
sngrad(rho) : 6.903623e-310 1.4751331e-312 0
sngrad(rho) : 6.903623e-310 1.4751331e-312 0
time step continuity errors : sum local = 0.07003323, global = -0.0021994945, cumulative = 0.051453912
ExecutionTime = 16.06 s  ClockTime = 16 s
Inflow      : 2.3094159e-06 [kg/s]
Outflow     : 2.0268199e-06 [kg/s]
EnergyInflow  : 0.69698171 [W]
EnergyOutflow : 0.6212152 [W]
EnergyBalance : -0.075766509 [W]
rho max/avg/min : 1.1754299 1.1606818 1.1418459
T   max/avg/min : 309.06316 304.07693 300.25048
P   max/avg/min : 101324.95 101318.79 101312.63
Prg max/avg/min : 101325.02 101324.48 101323.77
U   max/avg/min : 0.037730321 0.0022810184 4.1032009e-06
 
Iteration Number = 36

DILUPBiCG:  Solving for Ux, Initial residual = 0.037188676, Final residual = 5.0920944e-07, No Iterations 2
DILUPBiCG:  Solving for Uy, Initial residual = 0.080527332, Final residual = 8.4845361e-07, No Iterations 2
DILUPBiCG:  Solving for Uz, Initial residual = 0.069380928, Final residual = 8.8063709e-07, No Iterations 2
DILUPBiCG:  Solving for h, Initial residual = 0.012376372, Final residual = 8.1269706e-06, No Iterations 6
sngrad(rho) : 6.903623e-310 1.4751331e-312 0
GAMG:  Solving for p_rgh, Initial residual = 0.054175887, Final residual = 0.0053693967, No Iterations 24
sngrad(rho) : 6.903623e-310 1.4751331e-312 0
sngrad(rho) : 6.903623e-310 1.4751331e-312 0
time step continuity errors : sum local = 0.066563146, global = -0.0020379008, cumulative = 0.049416011
ExecutionTime = 16.65 s  ClockTime = 17 s
Inflow      : 2.3508937e-06 [kg/s]
Outflow     : 2.0890596e-06 [kg/s]
EnergyInflow  : 0.70949971 [W]
EnergyOutflow : 0.64055156 [W]
EnergyBalance : -0.068948158 [W]
rho max/avg/min : 1.1753797 1.1602807 1.1410137
T   max/avg/min : 309.29401 304.18264 300.26325
P   max/avg/min : 101324.94 101318.51 101312.11
Prg max/avg/min : 101325 101324.2 101323.25
U   max/avg/min : 0.038620837 0.0028477438 8.8744765e-06
 
Iteration Number = 37

DILUPBiCG:  Solving for Ux, Initial residual = 0.038161063, Final residual = 4.130107e-07, No Iterations 2
DILUPBiCG:  Solving for Uy, Initial residual = 0.09407231, Final residual = 8.0487579e-07, No Iterations 2
DILUPBiCG:  Solving for Uz, Initial residual = 0.083261012, Final residual = 1.0700311e-06, No Iterations 2
DILUPBiCG:  Solving for h, Initial residual = 0.012097328, Final residual = 7.3089741e-06, No Iterations 6
sngrad(rho) : 6.903623e-310 1.4751331e-312 0
GAMG:  Solving for p_rgh, Initial residual = 0.052279357, Final residual = 0.0052064006, No Iterations 16
sngrad(rho) : 6.903623e-310 1.4751331e-312 0
sngrad(rho) : 6.903623e-310 1.4751331e-312 0
time step continuity errors : sum local = 0.065542798, global = -0.0020091464, cumulative = 0.047406865
ExecutionTime = 17.21 s  ClockTime = 17 s
Inflow      : 2.4148653e-06 [kg/s]
Outflow     : 2.1567256e-06 [kg/s]
EnergyInflow  : 0.72880633 [W]
EnergyOutflow : 0.66153823 [W]
EnergyBalance : -0.067268108 [W]
rho max/avg/min : 1.1753295 1.159881 1.1401837
T   max/avg/min : 309.52549 304.28805 300.27603
P   max/avg/min : 101324.93 101318.34 101311.79
Prg max/avg/min : 101324.98 101324.02 101322.92
U   max/avg/min : 0.039578303 0.003549938 1.4392946e-05
 
Iteration Number = 38

DILUPBiCG:  Solving for Ux, Initial residual = 0.044453607, Final residual = 4.9456132e-07, No Iterations 2
DILUPBiCG:  Solving for Uy, Initial residual = 0.1040632, Final residual = 9.2745821e-07, No Iterations 2
DILUPBiCG:  Solving for Uz, Initial residual = 0.08194869, Final residual = 1.0554046e-06, No Iterations 2
DILUPBiCG:  Solving for h, Initial residual = 0.011839429, Final residual = 7.1932272e-06, No Iterations 6
sngrad(rho) : 6.903623e-310 1.4751331e-312 0
GAMG:  Solving for p_rgh, Initial residual = 0.05167072, Final residual = 0.0046641236, No Iterations 5
sngrad(rho) : 6.903623e-310 1.4751331e-312 0
sngrad(rho) : 6.903623e-310 1.4751331e-312 0
time step continuity errors : sum local = 0.059442335, global = 0.0053894429, cumulative = 0.052796308
ExecutionTime = 17.64 s  ClockTime = 18 s
Inflow      : 1.5324485e-06 [kg/s]
Outflow     : 2.2248962e-06 [kg/s]
EnergyInflow  : 0.46249296 [W]
EnergyOutflow : 0.68269959 [W]
EnergyBalance : 0.22020664 [W]
rho max/avg/min : 1.1752795 1.1594838 1.13935
T   max/avg/min : 309.75754 304.39319 300.28878
P   max/avg/min : 101324.93 101318.32 101311.76
Prg max/avg/min : 101324.99 101324.01 101322.88
U   max/avg/min : 0.040605588 0.0042831294 1.8921189e-05
 
Iteration Number = 39

DILUPBiCG:  Solving for Ux, Initial residual = 0.03755263, Final residual = 4.5836216e-07, No Iterations 2
DILUPBiCG:  Solving for Uy, Initial residual = 0.086218044, Final residual = 8.5579027e-07, No Iterations 2
DILUPBiCG:  Solving for Uz, Initial residual = 0.070138197, Final residual = 9.034349e-07, No Iterations 2
DILUPBiCG:  Solving for h, Initial residual = 0.011699774, Final residual = 8.27099e-06, No Iterations 6
sngrad(rho) : 6.903623e-310 1.4751331e-312 0
GAMG:  Solving for p_rgh, Initial residual = 0.049235861, Final residual = 0.0044326545, No Iterations 5
sngrad(rho) : 6.903623e-310 1.4751331e-312 0
sngrad(rho) : 6.903623e-310 1.4751331e-312 0
time step continuity errors : sum local = 0.057372792, global = 0.0048201341, cumulative = 0.057616442
ExecutionTime = 18.09 s  ClockTime = 18 s
Inflow      : 1.6780397e-06 [kg/s]
Outflow     : 2.2973413e-06 [kg/s]
EnergyInflow  : 0.50643238 [W]
EnergyOutflow : 0.705187 [W]
EnergyBalance : 0.19875462 [W]
rho max/avg/min : 1.1752299 1.1590841 1.1384948
T   max/avg/min : 309.99024 304.49956 300.30147
P   max/avg/min : 101324.93 101318.3 101311.73
Prg max/avg/min : 101324.99 101323.99 101322.85
U   max/avg/min : 0.042856838 0.0050275478 2.3013037e-05
 
Iteration Number = 40

DILUPBiCG:  Solving for Ux, Initial residual = 0.030054851, Final residual = 3.7535723e-07, No Iterations 2
DILUPBiCG:  Solving for Uy, Initial residual = 0.070705523, Final residual = 1.0468671e-06, No Iterations 2
DILUPBiCG:  Solving for Uz, Initial residual = 0.061260118, Final residual = 7.9402122e-07, No Iterations 2
DILUPBiCG:  Solving for h, Initial residual = 0.011447579, Final residual = 7.7505059e-06, No Iterations 6
sngrad(rho) : 6.903623e-310 1.4751331e-312 0
GAMG:  Solving for p_rgh, Initial residual = 0.046292003, Final residual = 0.0043508468, No Iterations 5
sngrad(rho) : 6.903623e-310 1.4751331e-312 0
sngrad(rho) : 6.903623e-310 1.4751331e-312 0
time step continuity errors : sum local = 0.0566674, global = 0.0043090465, cumulative = 0.061925488
ExecutionTime = 18.58 s  ClockTime = 19 s
Inflow      : 1.8127134e-06 [kg/s]
Outflow     : 2.3663493e-06 [kg/s]
EnergyInflow  : 0.5470769 [W]
EnergyOutflow : 0.7266563 [W]
EnergyBalance : 0.1795794 [W]
rho max/avg/min : 1.1751806 1.1586869 1.137639
T   max/avg/min : 310.22343 304.60538 300.31407
P   max/avg/min : 101324.93 101318.29 101311.71
Prg max/avg/min : 101324.99 101323.97 101322.81
U   max/avg/min : 0.048734648 0.0057813946 2.6945443e-05
 
Iteration Number = 41

DILUPBiCG:  Solving for Ux, Initial residual = 0.02653177, Final residual = 4.24838e-07, No Iterations 2
DILUPBiCG:  Solving for Uy, Initial residual = 0.062797218, Final residual = 1.0992423e-06, No Iterations 2
DILUPBiCG:  Solving for Uz, Initial residual = 0.054343375, Final residual = 7.088191e-07, No Iterations 2
DILUPBiCG:  Solving for h, Initial residual = 0.011217849, Final residual = 7.485382e-06, No Iterations 6
sngrad(rho) : 6.903623e-310 1.4751331e-312 0
GAMG:  Solving for p_rgh, Initial residual = 0.043436584, Final residual = 0.0040169496, No Iterations 7
sngrad(rho) : 6.903623e-310 1.4751331e-312 0
sngrad(rho) : 6.903623e-310 1.4751331e-312 0
time step continuity errors : sum local = 0.052671842, global = 0.0038656278, cumulative = 0.065791116
ExecutionTime = 19.12 s  ClockTime = 19 s
Inflow      : 1.9387414e-06 [kg/s]
Outflow     : 2.4354059e-06 [kg/s]
EnergyInflow  : 0.58511216 [W]
EnergyOutflow : 0.74814969 [W]
EnergyBalance : 0.16303753 [W]
rho max/avg/min : 1.1751316 1.1582918 1.1367838
T   max/avg/min : 310.45684 304.71076 300.32659
P   max/avg/min : 101324.94 101318.28 101311.67
Prg max/avg/min : 101324.99 101323.96 101322.77
U   max/avg/min : 0.05420769 0.0065471511 3.0900391e-05
 
Iteration Number = 42

DILUPBiCG:  Solving for Ux, Initial residual = 0.027026964, Final residual = 4.7500941e-07, No Iterations 2
DILUPBiCG:  Solving for Uy, Initial residual = 0.063959868, Final residual = 1.0537285e-06, No Iterations 2
DILUPBiCG:  Solving for Uz, Initial residual = 0.049065676, Final residual = 6.4439149e-07, No Iterations 2
DILUPBiCG:  Solving for h, Initial residual = 0.010977773, Final residual = 7.2839839e-06, No Iterations 6
sngrad(rho) : 6.903623e-310 1.4751331e-312 0
GAMG:  Solving for p_rgh, Initial residual = 0.040881602, Final residual = 0.0039708284, No Iterations 7
sngrad(rho) : 6.903623e-310 1.4751331e-312 0
sngrad(rho) : 6.903623e-310 1.4751331e-312 0
time step continuity errors : sum local = 0.052220432, global = -0.0014867322, cumulative = 0.064304384
ExecutionTime = 19.63 s  ClockTime = 20 s
Inflow      : 2.6944576e-06 [kg/s]
Outflow     : 2.5034389e-06 [kg/s]
EnergyInflow  : 0.81318731 [W]
EnergyOutflow : 0.76934152 [W]
EnergyBalance : -0.043845785 [W]
rho max/avg/min : 1.1750831 1.1578998 1.1359298
T   max/avg/min : 310.69025 304.81539 300.33901
P   max/avg/min : 101324.93 101318.24 101311.6
Prg max/avg/min : 101324.99 101323.92 101322.69
U   max/avg/min : 0.059120254 0.0073373044 3.512941e-05
 
Iteration Number = 43

DILUPBiCG:  Solving for Ux, Initial residual = 0.027070841, Final residual = 4.8576254e-07, No Iterations 2
DILUPBiCG:  Solving for Uy, Initial residual = 0.059731927, Final residual = 8.4196915e-07, No Iterations 2
DILUPBiCG:  Solving for Uz, Initial residual = 0.04551934, Final residual = 6.0213835e-07, No Iterations 2
DILUPBiCG:  Solving for h, Initial residual = 0.010746792, Final residual = 7.7623048e-06, No Iterations 6
sngrad(rho) : 6.903623e-310 1.4751331e-312 0
GAMG:  Solving for p_rgh, Initial residual = 0.039045275, Final residual = 0.0038644725, No Iterations 8
sngrad(rho) : 6.903623e-310 1.4751331e-312 0
sngrad(rho) : 6.903623e-310 1.4751331e-312 0
time step continuity errors : sum local = 0.051192253, global = 0.0032354065, cumulative = 0.067539791
ExecutionTime = 20.14 s  ClockTime = 20 s
Inflow      : 2.1545154e-06 [kg/s]
Outflow     : 2.5702076e-06 [kg/s]
EnergyInflow  : 0.65023274 [W]
EnergyOutflow : 0.79015377 [W]
EnergyBalance : 0.13992103 [W]
rho max/avg/min : 1.1750349 1.1575119 1.1350778
T   max/avg/min : 310.92346 304.91899 300.3513
P   max/avg/min : 101324.94 101318.23 101311.57
Prg max/avg/min : 101325 101323.9 101322.66
U   max/avg/min : 0.063434726 0.0081400536 3.9500798e-05
 
Iteration Number = 44

DILUPBiCG:  Solving for Ux, Initial residual = 0.026371741, Final residual = 4.6370154e-07, No Iterations 2
DILUPBiCG:  Solving for Uy, Initial residual = 0.054885434, Final residual = 6.5793431e-07, No Iterations 2
DILUPBiCG:  Solving for Uz, Initial residual = 0.041708929, Final residual = 5.5483061e-07, No Iterations 2
DILUPBiCG:  Solving for h, Initial residual = 0.010563221, Final residual = 6.9803998e-06, No Iterations 6
sngrad(rho) : 6.903623e-310 1.4751331e-312 0
GAMG:  Solving for p_rgh, Initial residual = 0.037499537, Final residual = 0.0036286457, No Iterations 9
sngrad(rho) : 6.903623e-310 1.4751331e-312 0
sngrad(rho) : 6.903623e-310 1.4751331e-312 0
time step continuity errors : sum local = 0.048588477, global = -0.0031418146, cumulative = 0.064397976
ExecutionTime = 20.66 s  ClockTime = 21 s
Inflow      : 3.0426129e-06 [kg/s]
Outflow     : 2.6389456e-06 [kg/s]
EnergyInflow  : 0.91826057 [W]
EnergyOutflow : 0.81157552 [W]
EnergyBalance : -0.10668505 [W]
rho max/avg/min : 1.1750107 1.1571239 1.1342291
T   max/avg/min : 311.15613 305.02278 300.35753
P   max/avg/min : 101324.93 101318.21 101311.54
Prg max/avg/min : 101324.99 101323.88 101322.61
U   max/avg/min : 0.067080068 0.0089543646 4.3941623e-05
 
Iteration Number = 45

DILUPBiCG:  Solving for Ux, Initial residual = 0.025080075, Final residual = 4.6158749e-07, No Iterations 2
DILUPBiCG:  Solving for Uy, Initial residual = 0.048186729, Final residual = 5.6811791e-07, No Iterations 2
DILUPBiCG:  Solving for Uz, Initial residual = 0.03860407, Final residual = 5.1637234e-07, No Iterations 2
DILUPBiCG:  Solving for h, Initial residual = 0.010386971, Final residual = 9.0692835e-06, No Iterations 6
sngrad(rho) : 6.903623e-310 1.4751331e-312 0
GAMG:  Solving for p_rgh, Initial residual = 0.036845567, Final residual = 0.0033829422, No Iterations 8
sngrad(rho) : 6.903623e-310 1.4751331e-312 0
sngrad(rho) : 6.903623e-310 1.4751331e-312 0
time step continuity errors : sum local = 0.045547613, global = -0.0012876322, cumulative = 0.063110344
ExecutionTime = 21.18 s  ClockTime = 21 s
Inflow      : 2.8719856e-06 [kg/s]
Outflow     : 2.7065477e-06 [kg/s]
EnergyInflow  : 0.86676525 [W]
EnergyOutflow : 0.83266905 [W]
EnergyBalance : -0.034096202 [W]
rho max/avg/min : 1.1750465 1.1567386 1.1333845
T   max/avg/min : 311.388 305.12594 300.34834
P   max/avg/min : 101324.93 101318.19 101311.5
Prg max/avg/min : 101324.99 101323.87 101322.57
U   max/avg/min : 0.069954319 0.0097811153 4.8530026e-05
 
Iteration Number = 46

DILUPBiCG:  Solving for Ux, Initial residual = 0.023022133, Final residual = 4.3437311e-07, No Iterations 2
DILUPBiCG:  Solving for Uy, Initial residual = 0.039635515, Final residual = 5.0465592e-07, No Iterations 2
DILUPBiCG:  Solving for Uz, Initial residual = 0.035997226, Final residual = 4.845821e-07, No Iterations 2
DILUPBiCG:  Solving for h, Initial residual = 0.010179104, Final residual = 6.666627e-06, No Iterations 6
sngrad(rho) : 6.903623e-310 1.4751331e-312 0
GAMG:  Solving for p_rgh, Initial residual = 0.036357502, Final residual = 0.0035994228, No Iterations 6
sngrad(rho) : 6.903623e-310 7.3756676e-313 0
sngrad(rho) : 6.903623e-310 7.3756676e-313 0
time step continuity errors : sum local = 0.048834398, global = 0.0017908407, cumulative = 0.064901185
ExecutionTime = 21.67 s  ClockTime = 22 s
Inflow      : 2.542765e-06 [kg/s]
Outflow     : 2.7728562e-06 [kg/s]
EnergyInflow  : 0.76740647 [W]
EnergyOutflow : 0.85337756 [W]
EnergyBalance : 0.085971088 [W]
rho max/avg/min : 1.1751378 1.1563556 1.1325456
T   max/avg/min : 311.61868 305.22856 300.32502
P   max/avg/min : 101324.94 101318.19 101311.49
Prg max/avg/min : 101325 101323.86 101322.55
U   max/avg/min : 0.072095887 0.010612348 5.329429e-05
 
Iteration Number = 47

DILUPBiCG:  Solving for Ux, Initial residual = 0.022302559, Final residual = 3.8914301e-07, No Iterations 2
DILUPBiCG:  Solving for Uy, Initial residual = 0.035859791, Final residual = 4.5884916e-07, No Iterations 2
DILUPBiCG:  Solving for Uz, Initial residual = 0.033387027, Final residual = 4.5195641e-07, No Iterations 2
DILUPBiCG:  Solving for h, Initial residual = 0.010003638, Final residual = 6.5377399e-06, No Iterations 6
sngrad(rho) : 6.903623e-310 1.4751331e-312 0
GAMG:  Solving for p_rgh, Initial residual = 0.035742969, Final residual = 0.0035265387, No Iterations 6
sngrad(rho) : 6.903623e-310 1.4751331e-312 0
sngrad(rho) : 6.903623e-310 1.4751331e-312 0
time step continuity errors : sum local = 0.048197468, global = 0.00091373678, cumulative = 0.065814921
ExecutionTime = 22.16 s  ClockTime = 22 s
Inflow      : 2.7220942e-06 [kg/s]
Outflow     : 2.8394931e-06 [kg/s]
EnergyInflow  : 0.82152802 [W]
EnergyOutflow : 0.87419581 [W]
EnergyBalance : 0.052667781 [W]
rho max/avg/min : 1.1752115 1.1559737 1.1317145
T   max/avg/min : 311.84755 305.33106 300.30619
P   max/avg/min : 101324.94 101318.19 101311.48
Prg max/avg/min : 101325 101323.86 101322.53
U   max/avg/min : 0.073258162 0.011446734 5.3998669e-05
 
Iteration Number = 48

DILUPBiCG:  Solving for Ux, Initial residual = 0.024181656, Final residual = 3.6687609e-07, No Iterations 2
DILUPBiCG:  Solving for Uy, Initial residual = 0.034898246, Final residual = 3.9610625e-07, No Iterations 2
DILUPBiCG:  Solving for Uz, Initial residual = 0.031155863, Final residual = 4.2452091e-07, No Iterations 2
DILUPBiCG:  Solving for h, Initial residual = 0.0098067507, Final residual = 6.1147659e-06, No Iterations 6
sngrad(rho) : 6.903623e-310 1.4751331e-312 0
GAMG:  Solving for p_rgh, Initial residual = 0.035439058, Final residual = 0.0035048778, No Iterations 5
sngrad(rho) : 6.903623e-310 1.4751331e-312 0
sngrad(rho) : 6.903623e-310 1.4751331e-312 0
time step continuity errors : sum local = 0.048208472, global = -0.00019323487, cumulative = 0.065621686
ExecutionTime = 22.6 s  ClockTime = 23 s
Inflow      : 2.9278505e-06 [kg/s]
Outflow     : 2.9030233e-06 [kg/s]
EnergyInflow  : 0.88362529 [W]
EnergyOutflow : 0.89407596 [W]
EnergyBalance : 0.010450664 [W]
rho max/avg/min : 1.1752795 1.1555949 1.1308925
T   max/avg/min : 312.07425 305.43281 300.28883
P   max/avg/min : 101324.95 101318.2 101311.48
Prg max/avg/min : 101325 101323.86 101322.52
U   max/avg/min : 0.076829986 0.012280455 5.4679418e-05
 
Iteration Number = 49

DILUPBiCG:  Solving for Ux, Initial residual = 0.024752534, Final residual = 3.5586911e-07, No Iterations 2
DILUPBiCG:  Solving for Uy, Initial residual = 0.038328624, Final residual = 4.1220833e-07, No Iterations 2
DILUPBiCG:  Solving for Uz, Initial residual = 0.029066288, Final residual = 3.9797677e-07, No Iterations 2
DILUPBiCG:  Solving for h, Initial residual = 0.0096717447, Final residual = 6.4063543e-06, No Iterations 6
sngrad(rho) : 6.903623e-310 1.4751331e-312 0
GAMG:  Solving for p_rgh, Initial residual = 0.03434162, Final residual = 0.0033456717, No Iterations 5
sngrad(rho) : 6.903623e-310 1.4751331e-312 0
sngrad(rho) : 6.903623e-310 1.4751331e-312 0
time step continuity errors : sum local = 0.046391465, global = -0.00068848738, cumulative = 0.064933199
ExecutionTime = 23.04 s  ClockTime = 23 s
Inflow      : 3.0565569e-06 [kg/s]
Outflow     : 2.9680985e-06 [kg/s]
EnergyInflow  : 0.92246887 [W]
EnergyOutflow : 0.91443523 [W]
EnergyBalance : -0.0080336411 [W]
rho max/avg/min : 1.1753576 1.1552167 1.1300817
T   max/avg/min : 312.29819 305.53449 300.26887
P   max/avg/min : 101324.95 101318.2 101311.48
Prg max/avg/min : 101325 101323.87 101322.52
U   max/avg/min : 0.080330809 0.013111273 5.5345596e-05
 
Iteration Number = 50

DILUPBiCG:  Solving for Ux, Initial residual = 0.023285323, Final residual = 3.5256715e-07, No Iterations 2
DILUPBiCG:  Solving for Uy, Initial residual = 0.038367108, Final residual = 5.0103236e-07, No Iterations 2
DILUPBiCG:  Solving for Uz, Initial residual = 0.027179919, Final residual = 3.7404327e-07, No Iterations 2
DILUPBiCG:  Solving for h, Initial residual = 0.0095186901, Final residual = 6.5127715e-06, No Iterations 6
sngrad(rho) : 6.903623e-310 1.4751331e-312 0
GAMG:  Solving for p_rgh, Initial residual = 0.03278472, Final residual = 0.0030805102, No Iterations 7
sngrad(rho) : 6.903623e-310 1.4751331e-312 0
sngrad(rho) : 6.903623e-310 1.4751331e-312 0
time step continuity errors : sum local = 0.042922063, global = -0.0023616371, cumulative = 0.062571562
ExecutionTime = 23.51 s  ClockTime = 24 s
Inflow      : 3.3353585e-06 [kg/s]
Outflow     : 3.0319301e-06 [kg/s]
EnergyInflow  : 1.0066112 [W]
EnergyOutflow : 0.9344342 [W]
EnergyBalance : -0.072176986 [W]
rho max/avg/min : 1.1754313 1.15484 1.1292835
T   max/avg/min : 312.51891 305.63587 300.25006
P   max/avg/min : 101324.94 101318.21 101311.5
Prg max/avg/min : 101325 101323.87 101322.53
U   max/avg/min : 0.083262515 0.013933694 5.5995148e-05
 
Iteration Number = 51

DILUPBiCG:  Solving for Ux, Initial residual = 0.021836353, Final residual = 3.6831959e-07, No Iterations 2
DILUPBiCG:  Solving for Uy, Initial residual = 0.03556928, Final residual = 5.8108772e-07, No Iterations 2
DILUPBiCG:  Solving for Uz, Initial residual = 0.025342616, Final residual = 3.5037845e-07, No Iterations 2
DILUPBiCG:  Solving for h, Initial residual = 0.0093706312, Final residual = 6.9136395e-06, No Iterations 6
sngrad(rho) : 6.903623e-310 1.4751331e-312 0
GAMG:  Solving for p_rgh, Initial residual = 0.030990977, Final residual = 0.0030780815, No Iterations 7
sngrad(rho) : 6.903623e-310 1.4751331e-312 0
sngrad(rho) : 6.903623e-310 1.4751331e-312 0
time step continuity errors : sum local = 0.04312179, global = -0.0030785147, cumulative = 0.059493047
ExecutionTime = 23.98 s  ClockTime = 24 s
Inflow      : 3.4906021e-06 [kg/s]
Outflow     : 3.0950677e-06 [kg/s]
EnergyInflow  : 1.0534637 [W]
EnergyOutflow : 0.95423349 [W]
EnergyBalance : -0.099230221 [W]
rho max/avg/min : 1.1755031 1.1544649 1.1284999
T   max/avg/min : 312.73594 305.73694 300.23172
P   max/avg/min : 101324.94 101318.22 101311.53
Prg max/avg/min : 101325 101323.89 101322.55
U   max/avg/min : 0.08557642 0.014745249 5.6630673e-05
 
Iteration Number = 52

DILUPBiCG:  Solving for Ux, Initial residual = 0.020828062, Final residual = 3.8790608e-07, No Iterations 2
DILUPBiCG:  Solving for Uy, Initial residual = 0.031103523, Final residual = 6.0096978e-07, No Iterations 2
DILUPBiCG:  Solving for Uz, Initial residual = 0.02368127, Final residual = 3.2895117e-07, No Iterations 2
DILUPBiCG:  Solving for h, Initial residual = 0.0092243483, Final residual = 7.490887e-06, No Iterations 6
sngrad(rho) : 6.903623e-310 1.4751331e-312 0
GAMG:  Solving for p_rgh, Initial residual = 0.029188887, Final residual = 0.0029118402, No Iterations 9
sngrad(rho) : 6.903623e-310 1.4751331e-312 0
sngrad(rho) : 6.903623e-310 1.4751331e-312 0
time step continuity errors : sum local = 0.040936264, global = 0.001019529, cumulative = 0.060512576
ExecutionTime = 24.5 s  ClockTime = 25 s
Inflow      : 3.0266391e-06 [kg/s]
Outflow     : 3.1576305e-06 [kg/s]
EnergyInflow  : 0.91343968 [W]
EnergyOutflow : 0.97386853 [W]
EnergyBalance : 0.060428857 [W]
rho max/avg/min : 1.1755708 1.1540915 1.1277322
T   max/avg/min : 312.94883 305.83765 300.21441
P   max/avg/min : 101324.94 101318.25 101311.58
Prg max/avg/min : 101325 101323.91 101322.59
U   max/avg/min : 0.087194957 0.015537664 5.7240431e-05
 
Iteration Number = 53

DILUPBiCG:  Solving for Ux, Initial residual = 0.019389164, Final residual = 3.9050552e-07, No Iterations 2
DILUPBiCG:  Solving for Uy, Initial residual = 0.028468859, Final residual = 5.7071353e-07, No Iterations 2
DILUPBiCG:  Solving for Uz, Initial residual = 0.021953277, Final residual = 3.0641417e-07, No Iterations 2
DILUPBiCG:  Solving for h, Initial residual = 0.0090663316, Final residual = 5.9896345e-06, No Iterations 6
sngrad(rho) : 6.903623e-310 1.4751331e-312 0
GAMG:  Solving for p_rgh, Initial residual = 0.027676949, Final residual = 0.0027505753, No Iterations 13
sngrad(rho) : 6.903623e-310 1.4751331e-312 0
sngrad(rho) : 6.903623e-310 1.4751331e-312 0
time step continuity errors : sum local = 0.038797194, global = 0.0009415012, cumulative = 0.061454078
ExecutionTime = 25.04 s  ClockTime = 25 s
Inflow      : 3.0977837e-06 [kg/s]
Outflow     : 3.2187499e-06 [kg/s]
EnergyInflow  : 0.93491113 [W]
EnergyOutflow : 0.99307243 [W]
EnergyBalance : 0.058161304 [W]
rho max/avg/min : 1.1756026 1.1537196 1.1269812
T   max/avg/min : 313.15738 305.93809 300.20631
P   max/avg/min : 101324.95 101318.31 101311.67
Prg max/avg/min : 101325 101323.96 101322.67
U   max/avg/min : 0.090807281 0.016296036 5.7780603e-05
 
Iteration Number = 54

DILUPBiCG:  Solving for Ux, Initial residual = 0.018709956, Final residual = 3.8432705e-07, No Iterations 2
DILUPBiCG:  Solving for Uy, Initial residual = 0.028601401, Final residual = 5.2225648e-07, No Iterations 2
DILUPBiCG:  Solving for Uz, Initial residual = 0.020015968, Final residual = 2.8058515e-07, No Iterations 2
DILUPBiCG:  Solving for h, Initial residual = 0.0089142515, Final residual = 3.3828612e-06, No Iterations 7
sngrad(rho) : 6.903623e-310 1.4751331e-312 0
GAMG:  Solving for p_rgh, Initial residual = 0.026719533, Final residual = 0.0026298642, No Iterations 19
sngrad(rho) : 6.903623e-310 1.4751331e-312 0
sngrad(rho) : 6.903623e-310 1.4751331e-312 0
time step continuity errors : sum local = 0.037214152, global = 0.00095286199, cumulative = 0.062406939
ExecutionTime = 25.64 s  ClockTime = 26 s
Inflow      : 3.1551592e-06 [kg/s]
Outflow     : 3.2775851e-06 [kg/s]
EnergyInflow  : 0.95222706 [W]
EnergyOutflow : 1.0115822 [W]
EnergyBalance : 0.05935512 [W]
rho max/avg/min : 1.1756273 1.1533501 1.1262428
T   max/avg/min : 313.36227 306.03806 300.2
P   max/avg/min : 101324.95 101318.39 101311.83
Prg max/avg/min : 101325 101324.05 101322.83
U   max/avg/min : 0.093401734 0.016995793 5.820064e-05
 
Iteration Number = 55

DILUPBiCG:  Solving for Ux, Initial residual = 0.019961333, Final residual = 3.8826983e-07, No Iterations 2
DILUPBiCG:  Solving for Uy, Initial residual = 0.029801356, Final residual = 4.5555084e-07, No Iterations 2
DILUPBiCG:  Solving for Uz, Initial residual = 0.017682375, Final residual = 2.487102e-07, No Iterations 2
DILUPBiCG:  Solving for h, Initial residual = 0.0087759409, Final residual = 1.9806161e-06, No Iterations 7
sngrad(rho) : 6.903623e-310 1.4751331e-312 0
GAMG:  Solving for p_rgh, Initial residual = 0.026233777, Final residual = 0.0026079738, No Iterations 21
sngrad(rho) : 6.903623e-310 1.4751331e-312 0
sngrad(rho) : 6.903623e-310 1.4751331e-312 0
time step continuity errors : sum local = 0.037020258, global = 0.0010045908, cumulative = 0.06341153
ExecutionTime = 26.26 s  ClockTime = 26 s
Inflow      : 3.2046469e-06 [kg/s]
Outflow     : 3.333719e-06 [kg/s]
EnergyInflow  : 0.96716244 [W]
EnergyOutflow : 1.029267 [W]
EnergyBalance : 0.062104595 [W]
rho max/avg/min : 1.1756505 1.1529827 1.1254173
T   max/avg/min : 313.59217 306.13763 300.19408
P   max/avg/min : 101324.95 101318.5 101312.03
Prg max/avg/min : 101325.02 101324.15 101323.02
U   max/avg/min : 0.094763147 0.017620144 5.8516219e-05
 
Iteration Number = 56

DILUPBiCG:  Solving for Ux, Initial residual = 0.021280748, Final residual = 3.9076274e-07, No Iterations 2
DILUPBiCG:  Solving for Uy, Initial residual = 0.030281924, Final residual = 4.4279879e-07, No Iterations 2
DILUPBiCG:  Solving for Uz, Initial residual = 0.015364409, Final residual = 2.1665688e-07, No Iterations 2
DILUPBiCG:  Solving for h, Initial residual = 0.0086482845, Final residual = 8.0767394e-06, No Iterations 6
sngrad(rho) : 6.903623e-310 1.4751331e-312 0
GAMG:  Solving for p_rgh, Initial residual = 0.026045207, Final residual = 0.0025643031, No Iterations 23
sngrad(rho) : 6.903623e-310 1.4751331e-312 0
sngrad(rho) : 6.903623e-310 1.4751331e-312 0
time step continuity errors : sum local = 0.036564592, global = 0.0010367835, cumulative = 0.064448314
ExecutionTime = 26.89 s  ClockTime = 27 s
Inflow      : 3.2543495e-06 [kg/s]
Outflow     : 3.3875577e-06 [kg/s]
EnergyInflow  : 0.98216268 [W]
EnergyOutflow : 1.0462533 [W]
EnergyBalance : 0.064090655 [W]
rho max/avg/min : 1.1756744 1.152617 1.1245969
T   max/avg/min : 313.82096 306.2369 300.188
P   max/avg/min : 101324.95 101318.62 101312.27
Prg max/avg/min : 101325.03 101324.28 101323.25
U   max/avg/min : 0.094760556 0.018154587 5.8755477e-05
 
Iteration Number = 57

DILUPBiCG:  Solving for Ux, Initial residual = 0.021357587, Final residual = 3.928632e-07, No Iterations 2
DILUPBiCG:  Solving for Uy, Initial residual = 0.028962768, Final residual = 4.3282118e-07, No Iterations 2
DILUPBiCG:  Solving for Uz, Initial residual = 0.012943441, Final residual = 1.8368084e-07, No Iterations 2
DILUPBiCG:  Solving for h, Initial residual = 0.0085252533, Final residual = 7.7705925e-06, No Iterations 6
sngrad(rho) : 6.903623e-310 1.4751331e-312 0
GAMG:  Solving for p_rgh, Initial residual = 0.026048388, Final residual = 0.0025735391, No Iterations 23
sngrad(rho) : 6.903623e-310 1.4751331e-312 0
sngrad(rho) : 6.903623e-310 1.4751331e-312 0
time step continuity errors : sum local = 0.036803054, global = 0.0010640177, cumulative = 0.065512331
ExecutionTime = 27.54 s  ClockTime = 28 s
Inflow      : 3.3023133e-06 [kg/s]
Outflow     : 3.4390206e-06 [kg/s]
EnergyInflow  : 0.99663815 [W]
EnergyOutflow : 1.0625183 [W]
EnergyBalance : 0.065880137 [W]
rho max/avg/min : 1.1756987 1.1522528 1.1237811
T   max/avg/min : 314.04879 306.33592 300.18178
P   max/avg/min : 101324.95 101318.75 101312.52
Prg max/avg/min : 101325.05 101324.4 101323.5
U   max/avg/min : 0.093578513 0.018592535 5.8959043e-05
 
Iteration Number = 58

DILUPBiCG:  Solving for Ux, Initial residual = 0.019933093, Final residual = 3.941255e-07, No Iterations 2
DILUPBiCG:  Solving for Uy, Initial residual = 0.025811519, Final residual = 4.0167266e-07, No Iterations 2
DILUPBiCG:  Solving for Uz, Initial residual = 0.010673557, Final residual = 1.5307898e-07, No Iterations 2
DILUPBiCG:  Solving for h, Initial residual = 0.0084065086, Final residual = 7.5777283e-06, No Iterations 6
sngrad(rho) : 6.903623e-310 1.4751331e-312 0
GAMG:  Solving for p_rgh, Initial residual = 0.025880877, Final residual = 0.0025708731, No Iterations 23
sngrad(rho) : 6.903623e-310 1.4751331e-312 0
sngrad(rho) : 6.903623e-310 1.4751331e-312 0
time step continuity errors : sum local = 0.036907668, global = 0.0010691201, cumulative = 0.066581452
ExecutionTime = 28.17 s  ClockTime = 28 s
Inflow      : 3.3512958e-06 [kg/s]
Outflow     : 3.4886587e-06 [kg/s]
EnergyInflow  : 1.0114211 [W]
EnergyOutflow : 1.0782299 [W]
EnergyBalance : 0.066808873 [W]
rho max/avg/min : 1.1757231 1.1518899 1.1229707
T   max/avg/min : 314.27545 306.4347 300.17555
P   max/avg/min : 101324.95 101318.89 101312.78
Prg max/avg/min : 101325.07 101324.54 101323.75
U   max/avg/min : 0.093386583 0.018931086 5.9155199e-05
 
Iteration Number = 59

DILUPBiCG:  Solving for Ux, Initial residual = 0.017937398, Final residual = 3.9629579e-07, No Iterations 2
DILUPBiCG:  Solving for Uy, Initial residual = 0.021832461, Final residual = 3.5756142e-07, No Iterations 2
DILUPBiCG:  Solving for Uz, Initial residual = 0.0086811912, Final residual = 1.2616914e-07, No Iterations 2
DILUPBiCG:  Solving for h, Initial residual = 0.0082913823, Final residual = 7.4420042e-06, No Iterations 6
sngrad(rho) : 6.903623e-310 1.4751331e-312 0
GAMG:  Solving for p_rgh, Initial residual = 0.025514751, Final residual = 0.0025503047, No Iterations 23
sngrad(rho) : 6.903623e-310 1.4751331e-312 0
sngrad(rho) : 6.903623e-310 1.4751331e-312 0
time step continuity errors : sum local = 0.036733387, global = 0.00104895, cumulative = 0.067630402
ExecutionTime = 28.83 s  ClockTime = 29 s
Inflow      : 3.4020477e-06 [kg/s]
Outflow     : 3.5368191e-06 [kg/s]
EnergyInflow  : 1.026738 [W]
EnergyOutflow : 1.0934943 [W]
EnergyBalance : 0.066756349 [W]
rho max/avg/min : 1.1757471 1.1515281 1.1221662
T   max/avg/min : 314.50075 306.53324 300.16941
P   max/avg/min : 101324.95 101319.02 101313.05
Prg max/avg/min : 101325.08 101324.67 101324.01
U   max/avg/min : 0.092904688 0.019169565 5.9359544e-05
 
Iteration Number = 60

DILUPBiCG:  Solving for Ux, Initial residual = 0.016285027, Final residual = 3.9320514e-07, No Iterations 2
DILUPBiCG:  Solving for Uy, Initial residual = 0.018837976, Final residual = 3.252077e-07, No Iterations 2
DILUPBiCG:  Solving for Uz, Initial residual = 0.0069229049, Final residual = 1.0305631e-07, No Iterations 2
DILUPBiCG:  Solving for h, Initial residual = 0.0081798461, Final residual = 7.3304516e-06, No Iterations 6
sngrad(rho) : 6.903623e-310 1.4751331e-312 0
GAMG:  Solving for p_rgh, Initial residual = 0.024949426, Final residual = 0.0024574079, No Iterations 25
sngrad(rho) : 6.903623e-310 1.4751331e-312 0
sngrad(rho) : 6.903623e-310 1.4751331e-312 0
time step continuity errors : sum local = 0.0355057, global = 0.00098872983, cumulative = 0.068619131
ExecutionTime = 29.49 s  ClockTime = 30 s
Inflow      : 3.4567133e-06 [kg/s]
Outflow     : 3.5837476e-06 [kg/s]
EnergyInflow  : 1.0432361 [W]
EnergyOutflow : 1.1083861 [W]
EnergyBalance : 0.065150033 [W]
rho max/avg/min : 1.1757707 1.1511676 1.1213683
T   max/avg/min : 314.72452 306.63155 300.1634
P   max/avg/min : 101324.95 101319.16 101313.33
Prg max/avg/min : 101325.09 101324.81 101324.28
U   max/avg/min : 0.091546852 0.019302864 5.3113627e-05
 
Iteration Number = 61

DILUPBiCG:  Solving for Ux, Initial residual = 0.016081891, Final residual = 3.9708579e-07, No Iterations 2
DILUPBiCG:  Solving for Uy, Initial residual = 0.018101587, Final residual = 3.2558296e-07, No Iterations 2
DILUPBiCG:  Solving for Uz, Initial residual = 0.005471701, Final residual = 8.4940634e-08, No Iterations 2
DILUPBiCG:  Solving for h, Initial residual = 0.0080717072, Final residual = 7.2335692e-06, No Iterations 6
sngrad(rho) : 6.903623e-310 1.4751331e-312 0
GAMG:  Solving for p_rgh, Initial residual = 0.024329565, Final residual = 0.0024153994, No Iterations 23
sngrad(rho) : 6.903623e-310 1.4751331e-312 0
sngrad(rho) : 6.903623e-310 1.4751331e-312 0
time step continuity errors : sum local = 0.034997256, global = 0.00093892971, cumulative = 0.069558061
ExecutionTime = 30.13 s  ClockTime = 30 s
Inflow      : 3.5087944e-06 [kg/s]
Outflow     : 3.6294302e-06 [kg/s]
EnergyInflow  : 1.0589541 [W]
EnergyOutflow : 1.1229003 [W]
EnergyBalance : 0.063946186 [W]
rho max/avg/min : 1.175794 1.1508083 1.1205775
T   max/avg/min : 314.94663 306.72963 300.15745
P   max/avg/min : 101324.94 101319.29 101313.57
Prg max/avg/min : 101325.11 101324.93 101324.51
U   max/avg/min : 0.090746016 0.019341041 4.5235904e-05
 
Iteration Number = 62

DILUPBiCG:  Solving for Ux, Initial residual = 0.016930951, Final residual = 4.1308583e-07, No Iterations 2
DILUPBiCG:  Solving for Uy, Initial residual = 0.018788093, Final residual = 3.393606e-07, No Iterations 2
DILUPBiCG:  Solving for Uz, Initial residual = 0.0048173977, Final residual = 7.6727123e-08, No Iterations 2
DILUPBiCG:  Solving for h, Initial residual = 0.0079669108, Final residual = 7.1917133e-06, No Iterations 6
sngrad(rho) : 6.903623e-310 1.4751331e-312 0
GAMG:  Solving for p_rgh, Initial residual = 0.023673206, Final residual = 0.0023626388, No Iterations 21
sngrad(rho) : 6.903623e-310 1.4751331e-312 0
sngrad(rho) : 6.903623e-310 1.4751331e-312 0
time step continuity errors : sum local = 0.034328564, global = 0.00087209181, cumulative = 0.070430153
ExecutionTime = 30.75 s  ClockTime = 31 s
Inflow      : 3.5618065e-06 [kg/s]
Outflow     : 3.6738548e-06 [kg/s]
EnergyInflow  : 1.0749532 [W]
EnergyOutflow : 1.1370327 [W]
EnergyBalance : 0.062079495 [W]
rho max/avg/min : 1.1758166 1.1504499 1.1197942
T   max/avg/min : 315.16692 306.82749 300.15167
P   max/avg/min : 101324.94 101319.39 101313.78
Prg max/avg/min : 101325.23 101325.03 101324.7
U   max/avg/min : 0.092014986 0.019298389 3.964654e-05
 
Iteration Number = 63

DILUPBiCG:  Solving for Ux, Initial residual = 0.017505734, Final residual = 4.26232e-07, No Iterations 2
DILUPBiCG:  Solving for Uy, Initial residual = 0.019178488, Final residual = 3.491109e-07, No Iterations 2
DILUPBiCG:  Solving for Uz, Initial residual = 0.0046701549, Final residual = 7.5180763e-08, No Iterations 2
DILUPBiCG:  Solving for h, Initial residual = 0.0078651105, Final residual = 7.2636169e-06, No Iterations 6
sngrad(rho) : 6.903623e-310 1.4751331e-312 0
GAMG:  Solving for p_rgh, Initial residual = 0.023058849, Final residual = 0.0022816045, No Iterations 21
[...]
GAMG:  Solving for p_rgh, Initial residual = 0.022258791, Final residual = 0.002201355, No Iterations 18
sngrad(rho) : 6.903623e-310 1.4751331e-312 0
sngrad(rho) : 6.903623e-310 1.4751331e-312 0
time step continuity errors : sum local = 0.037996306, global = 0.0014806012, cumulative = 0.052069213
ExecutionTime = 65.14 s  ClockTime = 65 s
Inflow      : 5.533948e-06 [kg/s]
Outflow     : 5.7241789e-06 [kg/s]
EnergyInflow  : 1.6701455 [W]
EnergyOutflow : 1.8052789 [W]
EnergyBalance : 0.13513342 [W]
rho max/avg/min : 1.1763645 1.1316048 1.0800896
T   max/avg/min : 326.75112 312.07169 300.01185
P   max/avg/min : 101324.94 101319.6 101314.19
Prg max/avg/min : 101325.56 101325.14 101324.75
U   max/avg/min : 0.13922284 0.028145229 -4.7535253e-05
 
Iteration Number = 120

DILUPBiCG:  Solving for Ux, Initial residual = 0.01738405, Final residual = 3.8536105e-07, No Iterations 2
DILUPBiCG:  Solving for Uy, Initial residual = 0.015233859, Final residual = 2.3047367e-07, No Iterations 2
DILUPBiCG:  Solving for Uz, Initial residual = 0.0045768223, Final residual = 6.0184951e-08, No Iterations 2
DILUPBiCG:  Solving for h, Initial residual = 0.0047214307, Final residual = 4.1959512e-06, No Iterations 6
sngrad(rho) : 6.903623e-310 1.4751331e-312 0
GAMG:  Solving for p_rgh, Initial residual = 0.022442181, Final residual = 0.0021667883, No Iterations 16
sngrad(rho) : 6.903623e-310 1.4751331e-312 0
sngrad(rho) : 6.903623e-310 1.4751331e-312 0
time step continuity errors : sum local = 0.037486853, global = 0.0015666777, cumulative = 0.05363589
ExecutionTime = 65.7 s  ClockTime = 66 s
Inflow      : 5.5569068e-06 [kg/s]
Outflow     : 5.758197e-06 [kg/s]
EnergyInflow  : 1.6770745 [W]
EnergyOutflow : 1.8165921 [W]
EnergyBalance : 0.13951768 [W]
rho max/avg/min : 1.176364 1.1313009 1.0794802
T   max/avg/min : 326.93557 312.15813 300.01198
P   max/avg/min : 101324.94 101319.61 101314.21
Prg max/avg/min : 101325.59 101325.15 101324.76
U   max/avg/min : 0.13727191 0.027984117 -9.7166235e-05
 
Iteration Number = 121

DILUPBiCG:  Solving for Ux, Initial residual = 0.01716701, Final residual = 3.8079365e-07, No Iterations 2
DILUPBiCG:  Solving for Uy, Initial residual = 0.016068907, Final residual = 2.3996361e-07, No Iterations 2
DILUPBiCG:  Solving for Uz, Initial residual = 0.004879273, Final residual = 6.3249765e-08, No Iterations 2
DILUPBiCG:  Solving for h, Initial residual = 0.0046890562, Final residual = 4.1893142e-06, No Iterations 6
sngrad(rho) : 6.903623e-310 1.4751331e-312 0
GAMG:  Solving for p_rgh, Initial residual = 0.023074161, Final residual = 0.0021619181, No Iterations 16
sngrad(rho) : 6.903623e-310 1.4751331e-312 0
sngrad(rho) : 6.903623e-310 1.4751331e-312 0
time step continuity errors : sum local = 0.037495476, global = -0.00025486686, cumulative = 0.053381023
ExecutionTime = 66.24 s  ClockTime = 66 s
Inflow      : 5.8186536e-06 [kg/s]
Outflow     : 5.7859077e-06 [kg/s]
EnergyInflow  : 1.7560697 [W]
EnergyOutflow : 1.8259376 [W]
EnergyBalance : 0.069867966 [W]
rho max/avg/min : 1.1763642 1.1309982 1.0788617
T   max/avg/min : 327.12268 312.24432 300.01195
P   max/avg/min : 101324.94 101319.61 101314.22
Prg max/avg/min : 101325.6 101325.15 101324.77
U   max/avg/min : 0.14123261 0.027819359 -0.00010740998
 
Iteration Number = 122

DILUPBiCG:  Solving for Ux, Initial residual = 0.017307106, Final residual = 3.6945557e-07, No Iterations 2
DILUPBiCG:  Solving for Uy, Initial residual = 0.01776843, Final residual = 2.4539282e-07, No Iterations 2
DILUPBiCG:  Solving for Uz, Initial residual = 0.0050749769, Final residual = 6.5009746e-08, No Iterations 2
DILUPBiCG:  Solving for h, Initial residual = 0.0046621392, Final residual = 4.1377493e-06, No Iterations 6
sngrad(rho) : 6.903623e-310 1.4751331e-312 0
GAMG:  Solving for p_rgh, Initial residual = 0.023564636, Final residual = 0.0022651584, No Iterations 16
sngrad(rho) : 6.903623e-310 1.4751331e-312 0
sngrad(rho) : 6.903623e-310 1.4751331e-312 0
time step continuity errors : sum local = 0.039402092, global = 0.00018741097, cumulative = 0.053568434
ExecutionTime = 66.8 s  ClockTime = 67 s
Inflow      : 5.7838167e-06 [kg/s]
Outflow     : 5.8078956e-06 [kg/s]
EnergyInflow  : 1.7455559 [W]
EnergyOutflow : 1.8334934 [W]
EnergyBalance : 0.087937548 [W]
rho max/avg/min : 1.1763657 1.130696 1.0782236
T   max/avg/min : 327.31625 312.33039 300.01157
P   max/avg/min : 101324.94 101319.61 101314.23
Prg max/avg/min : 101325.61 101325.15 101324.77
U   max/avg/min : 0.14385218 0.027652964 -7.5471e-05
 
Iteration Number = 123

DILUPBiCG:  Solving for Ux, Initial residual = 0.017544844, Final residual = 3.6053301e-07, No Iterations 2
DILUPBiCG:  Solving for Uy, Initial residual = 0.01852631, Final residual = 2.4412154e-07, No Iterations 2
DILUPBiCG:  Solving for Uz, Initial residual = 0.0051637776, Final residual = 6.5792292e-08, No Iterations 2
DILUPBiCG:  Solving for h, Initial residual = 0.0046357529, Final residual = 4.0859926e-06, No Iterations 6
sngrad(rho) : 6.903623e-310 1.4751331e-312 0
GAMG:  Solving for p_rgh, Initial residual = 0.023891893, Final residual = 0.0021541067, No Iterations 17
sngrad(rho) : 6.903623e-310 1.4751331e-312 0
sngrad(rho) : 6.903623e-310 1.4751331e-312 0
time step continuity errors : sum local = 0.037564036, global = 0.00069591544, cumulative = 0.05426435
ExecutionTime = 67.35 s  ClockTime = 67 s
Inflow      : 5.7350731e-06 [kg/s]
Outflow     : 5.8244859e-06 [kg/s]
EnergyInflow  : 1.7308451 [W]
EnergyOutflow : 1.8393652 [W]
EnergyBalance : 0.10852015 [W]
rho max/avg/min : 1.1763671 1.1303941 1.0775898
T   max/avg/min : 327.50875 312.41639 300.01121
P   max/avg/min : 101324.94 101319.61 101314.24
Prg max/avg/min : 101325.62 101325.15 101324.77
U   max/avg/min : 0.14484925 0.027486077 -0.0001542328
 
Iteration Number = 124

DILUPBiCG:  Solving for Ux, Initial residual = 0.017835035, Final residual = 3.5931865e-07, No Iterations 2
DILUPBiCG:  Solving for Uy, Initial residual = 0.018265828, Final residual = 2.4295781e-07, No Iterations 2
DILUPBiCG:  Solving for Uz, Initial residual = 0.0052576867, Final residual = 6.6231629e-08, No Iterations 2
DILUPBiCG:  Solving for h, Initial residual = 0.0046062022, Final residual = 4.0970473e-06, No Iterations 6
sngrad(rho) : 6.903623e-310 1.4751331e-312 0
GAMG:  Solving for p_rgh, Initial residual = 0.024442117, Final residual = 0.0023033294, No Iterations 17
sngrad(rho) : 6.903623e-310 1.4751331e-312 0
sngrad(rho) : 6.903623e-310 1.4751331e-312 0
time step continuity errors : sum local = 0.040270279, global = 0.0006261484, cumulative = 0.054890498
ExecutionTime = 67.92 s  ClockTime = 68 s
Inflow      : 5.7553766e-06 [kg/s]
Outflow     : 5.8358256e-06 [kg/s]
EnergyInflow  : 1.7369727 [W]
EnergyOutflow : 1.8435982 [W]
EnergyBalance : 0.10662552 [W]
rho max/avg/min : 1.176368 1.1300931 1.0769607
T   max/avg/min : 327.70007 312.50224 300.01098
P   max/avg/min : 101324.94 101319.6 101314.23
Prg max/avg/min : 101325.61 101325.14 101324.76
U   max/avg/min : 0.14404065 0.02732138 -0.0003101775
 
Iteration Number = 125

DILUPBiCG:  Solving for Ux, Initial residual = 0.018452561, Final residual = 3.5866778e-07, No Iterations 2
DILUPBiCG:  Solving for Uy, Initial residual = 0.01856461, Final residual = 2.4518737e-07, No Iterations 2
DILUPBiCG:  Solving for Uz, Initial residual = 0.00536404, Final residual = 6.6322904e-08, No Iterations 2
DILUPBiCG:  Solving for h, Initial residual = 0.0045799179, Final residual = 4.0525984e-06, No Iterations 6
sngrad(rho) : 6.903623e-310 1.4751331e-312 0
GAMG:  Solving for p_rgh, Initial residual = 0.024850348, Final residual = 0.0024198198, No Iterations 17
sngrad(rho) : 6.903623e-310 1.4751331e-312 0
sngrad(rho) : 6.903623e-310 1.4751331e-312 0
time step continuity errors : sum local = 0.042412431, global = -0.00094455847, cumulative = 0.05394594
ExecutionTime = 68.48 s  ClockTime = 69 s
Inflow      : 5.9647646e-06 [kg/s]
Outflow     : 5.8434056e-06 [kg/s]
EnergyInflow  : 1.8001659 [W]
EnergyOutflow : 1.8466544 [W]
EnergyBalance : 0.04648841 [W]
rho max/avg/min : 1.1763691 1.1297925 1.0763363
T   max/avg/min : 327.89014 312.58798 300.01069
P   max/avg/min : 101324.94 101319.59 101314.22
Prg max/avg/min : 101325.6 101325.13 101324.74
U   max/avg/min : 0.14175395 0.027162206 -0.00056495118
 
Iteration Number = 126

DILUPBiCG:  Solving for Ux, Initial residual = 0.019539274, Final residual = 3.6596819e-07, No Iterations 2
DILUPBiCG:  Solving for Uy, Initial residual = 0.019939837, Final residual = 2.5064766e-07, No Iterations 2
DILUPBiCG:  Solving for Uz, Initial residual = 0.005502325, Final residual = 6.6458399e-08, No Iterations 2
DILUPBiCG:  Solving for h, Initial residual = 0.004553183, Final residual = 3.9476422e-06, No Iterations 6
sngrad(rho) : 6.903623e-310 1.4751331e-312 0
GAMG:  Solving for p_rgh, Initial residual = 0.024970368, Final residual = 0.0023567562, No Iterations 17
sngrad(rho) : 6.903623e-310 1.4751331e-312 0
sngrad(rho) : 6.903623e-310 1.4751331e-312 0
time step continuity errors : sum local = 0.041395793, global = 0.00068743446, cumulative = 0.054633374
ExecutionTime = 69.05 s  ClockTime = 69 s
Inflow      : 5.759741e-06 [kg/s]
Outflow     : 5.8480641e-06 [kg/s]
EnergyInflow  : 1.7382898 [W]
EnergyOutflow : 1.8487985 [W]
EnergyBalance : 0.11050864 [W]
rho max/avg/min : 1.1763714 1.1294928 1.0757171
T   max/avg/min : 328.07889 312.67354 300.0101
P   max/avg/min : 101324.94 101319.58 101314.21
Prg max/avg/min : 101325.58 101325.11 101324.72
U   max/avg/min : 0.13808695 0.027010123 -0.0007052295
 
Iteration Number = 127

DILUPBiCG:  Solving for Ux, Initial residual = 0.020786969, Final residual = 3.7411058e-07, No Iterations 2
DILUPBiCG:  Solving for Uy, Initial residual = 0.022271468, Final residual = 2.6137767e-07, No Iterations 2
DILUPBiCG:  Solving for Uz, Initial residual = 0.0056032063, Final residual = 6.6141744e-08, No Iterations 2
DILUPBiCG:  Solving for h, Initial residual = 0.0045236766, Final residual = 4.0455771e-06, No Iterations 6
sngrad(rho) : 6.903623e-310 1.4751331e-312 0
GAMG:  Solving for p_rgh, Initial residual = 0.025292051, Final residual = 0.0024342383, No Iterations 17
sngrad(rho) : 6.903623e-310 1.4751331e-312 0
sngrad(rho) : 6.903623e-310 1.4751331e-312 0
time step continuity errors : sum local = 0.042850254, global = -0.0012647215, cumulative = 0.053368653
ExecutionTime = 69.6 s  ClockTime = 70 s
Inflow      : 6.013429e-06 [kg/s]
Outflow     : 5.8509348e-06 [kg/s]
EnergyInflow  : 1.8148529 [W]
EnergyOutflow : 1.8503832 [W]
EnergyBalance : 0.03553027 [W]
rho max/avg/min : 1.176373 1.1291937 1.0751033
T   max/avg/min : 328.26617 312.75894 300.0097
P   max/avg/min : 101324.94 101319.56 101314.19
Prg max/avg/min : 101325.55 101325.09 101324.69
U   max/avg/min : 0.13939419 0.026867668 -0.00071941882
 
Iteration Number = 128

DILUPBiCG:  Solving for Ux, Initial residual = 0.021734094, Final residual = 3.7479176e-07, No Iterations 2
DILUPBiCG:  Solving for Uy, Initial residual = 0.024288063, Final residual = 2.6612292e-07, No Iterations 2
DILUPBiCG:  Solving for Uz, Initial residual = 0.0057017785, Final residual = 6.5463016e-08, No Iterations 2
DILUPBiCG:  Solving for h, Initial residual = 0.0044966876, Final residual = 3.90617e-06, No Iterations 6
sngrad(rho) : 6.903623e-310 1.4751331e-312 0
GAMG:  Solving for p_rgh, Initial residual = 0.025833313, Final residual = 0.0024529436, No Iterations 17
sngrad(rho) : 6.903623e-310 1.4751331e-312 0
sngrad(rho) : 6.903623e-310 1.4751331e-312 0
time step continuity errors : sum local = 0.043267989, global = -0.0013911412, cumulative = 0.051977512
ExecutionTime = 70.16 s  ClockTime = 70 s
Inflow      : 6.0320537e-06 [kg/s]
Outflow     : 5.8533168e-06 [kg/s]
EnergyInflow  : 1.8204738 [W]
EnergyOutflow : 1.8518146 [W]
EnergyBalance : 0.031340775 [W]
rho max/avg/min : 1.1763752 1.1288955 1.0744953
T   max/avg/min : 328.45191 312.84415 300.00911
P   max/avg/min : 101324.93 101319.54 101314.16
Prg max/avg/min : 101325.52 101325.07 101324.66
U   max/avg/min : 0.14464485 0.026736881 -0.00060354651
 
Iteration Number = 129

DILUPBiCG:  Solving for Ux, Initial residual = 0.022387209, Final residual = 3.7459684e-07, No Iterations 2
DILUPBiCG:  Solving for Uy, Initial residual = 0.02567741, Final residual = 2.6960407e-07, No Iterations 2
DILUPBiCG:  Solving for Uz, Initial residual = 0.0057344278, Final residual = 6.4259578e-08, No Iterations 2
DILUPBiCG:  Solving for h, Initial residual = 0.0044688306, Final residual = 3.8896343e-06, No Iterations 6
sngrad(rho) : 6.903623e-310 1.4751331e-312 0
GAMG:  Solving for p_rgh, Initial residual = 0.026214982, Final residual = 0.0025171998, No Iterations 17
sngrad(rho) : 6.903623e-310 1.4751331e-312 0
sngrad(rho) : 6.903623e-310 1.4751331e-312 0
time step continuity errors : sum local = 0.044474773, global = 0.0013323934, cumulative = 0.053309905
ExecutionTime = 70.75 s  ClockTime = 71 s
Inflow      : 5.6851536e-06 [kg/s]
Outflow     : 5.8563425e-06 [kg/s]
EnergyInflow  : 1.7157794 [W]
EnergyOutflow : 1.8534483 [W]
EnergyBalance : 0.13766893 [W]
rho max/avg/min : 1.1763777 1.1285979 1.0738934
T   max/avg/min : 328.63598 312.92921 300.00848
P   max/avg/min : 101324.94 101319.52 101314.13
Prg max/avg/min : 101325.48 101325.05 101324.62
U   max/avg/min : 0.14815091 0.026619547 -0.00059583809
 
Iteration Number = 130

DILUPBiCG:  Solving for Ux, Initial residual = 0.023108528, Final residual = 3.7444991e-07, No Iterations 2
DILUPBiCG:  Solving for Uy, Initial residual = 0.026664832, Final residual = 2.7346258e-07, No Iterations 2
DILUPBiCG:  Solving for Uz, Initial residual = 0.0058050415, Final residual = 6.2793504e-08, No Iterations 2
DILUPBiCG:  Solving for h, Initial residual = 0.0044390841, Final residual = 4.0842723e-06, No Iterations 6
sngrad(rho) : 6.903623e-310 1.4751331e-312 0
GAMG:  Solving for p_rgh, Initial residual = 0.026674657, Final residual = 0.0024526885, No Iterations 18
sngrad(rho) : 6.903623e-310 1.4751331e-312 0
sngrad(rho) : 6.903623e-310 1.4751331e-312 0
time step continuity errors : sum local = 0.043423275, global = -0.0013992743, cumulative = 0.051910631
ExecutionTime = 71.38 s  ClockTime = 71 s
Inflow      : 6.040767e-06 [kg/s]
Outflow     : 5.8609851e-06 [kg/s]
EnergyInflow  : 1.8231035 [W]
EnergyOutflow : 1.8555892 [W]
EnergyBalance : 0.032485746 [W]
rho max/avg/min : 1.1763784 1.1283012 1.0732864
T   max/avg/min : 328.81823 313.0141 300.00832
P   max/avg/min : 101324.94 101319.49 101314.08
Prg max/avg/min : 101325.44 101325.02 101324.57
U   max/avg/min : 0.14956764 0.026519115 -0.0009091575
 
Iteration Number = 131

DILUPBiCG:  Solving for Ux, Initial residual = 0.023881911, Final residual = 3.6960848e-07, No Iterations 2
DILUPBiCG:  Solving for Uy, Initial residual = 0.027314687, Final residual = 2.7571406e-07, No Iterations 2
DILUPBiCG:  Solving for Uz, Initial residual = 0.0058878999, Final residual = 6.1287525e-08, No Iterations 2
DILUPBiCG:  Solving for h, Initial residual = 0.0044116161, Final residual = 3.865659e-06, No Iterations 6
sngrad(rho) : 6.903623e-310 1.4751331e-312 0
GAMG:  Solving for p_rgh, Initial residual = 0.027429271, Final residual = 0.0025700132, No Iterations 18
sngrad(rho) : 6.903623e-310 1.4751331e-312 0
sngrad(rho) : 6.903623e-310 1.4751331e-312 0
time step continuity errors : sum local = 0.045585421, global = 0.0019735967, cumulative = 0.053884227
ExecutionTime = 72 s  ClockTime = 72 s
Inflow      : 5.6146019e-06 [kg/s]
Outflow     : 5.868174e-06 [kg/s]
EnergyInflow  : 1.6944869 [W]
EnergyOutflow : 1.8585288 [W]
EnergyBalance : 0.16404191 [W]
rho max/avg/min : 1.1763796 1.1280053 1.0726725
T   max/avg/min : 328.99855 313.09877 300.008
P   max/avg/min : 101324.94 101319.47 101314.04
Prg max/avg/min : 101325.39 101324.99 101324.52
U   max/avg/min : 0.1486623 0.026437489 -0.0012126874
 
Iteration Number = 132

DILUPBiCG:  Solving for Ux, Initial residual = 0.025080049, Final residual = 3.6972552e-07, No Iterations 2
DILUPBiCG:  Solving for Uy, Initial residual = 0.028709907, Final residual = 2.8628502e-07, No Iterations 2
DILUPBiCG:  Solving for Uz, Initial residual = 0.0058151776, Final residual = 5.9118065e-08, No Iterations 2
DILUPBiCG:  Solving for h, Initial residual = 0.0043829683, Final residual = 4.064983e-06, No Iterations 6
sngrad(rho) : 6.903623e-310 1.4751331e-312 0
GAMG:  Solving for p_rgh, Initial residual = 0.027815631, Final residual = 0.0025996323, No Iterations 18
sngrad(rho) : 6.903623e-310 1.4751331e-312 0
sngrad(rho) : 6.903623e-310 1.4751331e-312 0
time step continuity errors : sum local = 0.046181265, global = -0.0014546034, cumulative = 0.052429624
ExecutionTime = 72.64 s  ClockTime = 73 s
Inflow      : 6.0655027e-06 [kg/s]
Outflow     : 5.8786121e-06 [kg/s]
EnergyInflow  : 1.8305687 [W]
EnergyOutflow : 1.862488 [W]
EnergyBalance : 0.031919261 [W]
rho max/avg/min : 1.1763792 1.1277101 1.0720607
T   max/avg/min : 329.18554 313.1833 300.00811
P   max/avg/min : 101324.94 101319.43 101313.98
Prg max/avg/min : 101325.33 101324.96 101324.46
U   max/avg/min : 0.14531825 0.026377492 -0.0013906562
 
Iteration Number = 133

DILUPBiCG:  Solving for Ux, Initial residual = 0.025859587, Final residual = 3.6787448e-07, No Iterations 2
DILUPBiCG:  Solving for Uy, Initial residual = 0.029489482, Final residual = 2.91014e-07, No Iterations 2
DILUPBiCG:  Solving for Uz, Initial residual = 0.0058800576, Final residual = 5.7859344e-08, No Iterations 2
DILUPBiCG:  Solving for h, Initial residual = 0.0043580514, Final residual = 3.8114918e-06, No Iterations 6
sngrad(rho) : 6.903623e-310 1.4751331e-312 0
GAMG:  Solving for p_rgh, Initial residual = 0.028056805, Final residual = 0.0027399, No Iterations 18
sngrad(rho) : 6.903623e-310 1.4751331e-312 0
sngrad(rho) : 6.903623e-310 1.4751331e-312 0
time step continuity errors : sum local = 0.048814302, global = -0.0015787692, cumulative = 0.050850855
ExecutionTime = 73.26 s  ClockTime = 73 s
Inflow      : 6.0955373e-06 [kg/s]
Outflow     : 5.8926935e-06 [kg/s]
EnergyInflow  : 1.8396332 [W]
EnergyOutflow : 1.8675923 [W]
EnergyBalance : 0.027959092 [W]
rho max/avg/min : 1.1763801 1.1274156 1.0714509
T   max/avg/min : 329.37352 313.26766 300.00787
P   max/avg/min : 101324.94 101319.4 101313.93
Prg max/avg/min : 101325.27 101324.92 101324.4
U   max/avg/min : 0.14496808 0.02633966 -0.0014279738
 
Iteration Number = 134

DILUPBiCG:  Solving for Ux, Initial residual = 0.026513887, Final residual = 3.7265137e-07, No Iterations 2
DILUPBiCG:  Solving for Uy, Initial residual = 0.029724018, Final residual = 2.9419997e-07, No Iterations 2
DILUPBiCG:  Solving for Uz, Initial residual = 0.0060161491, Final residual = 5.7266644e-08, No Iterations 2
DILUPBiCG:  Solving for h, Initial residual = 0.0043332018, Final residual = 3.7858061e-06, No Iterations 6
sngrad(rho) : 6.903623e-310 1.4751331e-312 0
GAMG:  Solving for p_rgh, Initial residual = 0.028670606, Final residual = 0.0027661994, No Iterations 18
sngrad(rho) : 6.903623e-310 1.4751331e-312 0
sngrad(rho) : 6.903623e-310 1.4751331e-312 0
time step continuity errors : sum local = 0.049373113, global = -0.0016207847, cumulative = 0.04923007
ExecutionTime = 73.9 s  ClockTime = 74 s
Inflow      : 6.1185903e-06 [kg/s]
Outflow     : 5.9103483e-06 [kg/s]
EnergyInflow  : 1.8465906 [W]
EnergyOutflow : 1.8738215 [W]
EnergyBalance : 0.027230933 [W]
rho max/avg/min : 1.1763817 1.1271217 1.0708431
T   max/avg/min : 329.56057 313.35191 300.00747
P   max/avg/min : 101324.94 101319.36 101313.87
Prg max/avg/min : 101325.21 101324.88 101324.33
U   max/avg/min : 0.15332456 0.026325278 -0.001314544
 
Iteration Number = 135

DILUPBiCG:  Solving for Ux, Initial residual = 0.027073133, Final residual = 3.8410459e-07, No Iterations 2
DILUPBiCG:  Solving for Uy, Initial residual = 0.02990748, Final residual = 3.0014003e-07, No Iterations 2
DILUPBiCG:  Solving for Uz, Initial residual = 0.0061313566, Final residual = 5.7093851e-08, No Iterations 2
DILUPBiCG:  Solving for h, Initial residual = 0.0043078569, Final residual = 3.7725651e-06, No Iterations 6
