/*---------------------------------------------------------------------------*\
| =========                 |                                                 |
| \\      /  F ield         | OpenFOAM: The Open Source CFD Toolbox           |
|  \\    /   O peration     | Version:  4.0                                   |
|   \\  /    A nd           | Web:      www.OpenFOAM.org                      |
|    \\/     M anipulation  |                                                 |
\*---------------------------------------------------------------------------*/
Build  : 4.0-665f1db4c1f1
Exec   : pupoBuoyantSimpleFoam
Date   : Sep 08 2016
Time   : 12:20:12
Host   : "SC500"
PID    : 8707
Case   : /home/pedro/Documents/ThesisProject/OpenFoam/validation7rod/justfluid
nProcs : 1
sigFpe : Enabling floating point exception trapping (FOAM_SIGFPE).
fileModificationChecking : Monitoring run-time modified files using timeStampMaster
allowSystemOperations : Allowing user-supplied system call operations

// * * * * * * * * * * * * * * * * * * * * * * * * * * * * * * * * * * * * * //
Create time

Create mesh for time = 0


SIMPLE: convergence criteria
    field p_rgh	 tolerance 1e-06
    field Uz	 tolerance 1e-06
    field h	 tolerance 1e-06

Reading thermophysical properties

Selecting thermodynamics package 
{
    type            heRhoThermo;
    mixture         pureMixture;
    transport       sutherland;
    thermo          hConst;
    equationOfState perfectGas;
    specie          specie;
    energy          sensibleEnthalpy;
}


Reading g

Reading hRef
Calculating field g.h

Selecting turbulence model type laminar
No MRF models present

Selecting radiationModel none
 
rho max/avg/min : 1.2016456 1.2015764 1.2015072
T   max/avg/min : 293.7 293.7 293.7
P   max/avg/min : 101324.94 101319.11 101313.27
Prg max/avg/min : 101325 101325 101325
U   max/avg/min : 0 0 0
 
Prg max-min : 0.0006788071
 
No finite volume options present


Starting Iteration loop

Iteration Number = 1

DILUPBiCG:  Solving for Ux, Initial residual = 2.373175e-08, Final residual = 2.373175e-08, No Iterations 0
DILUPBiCG:  Solving for Uy, Initial residual = 1.660969e-08, Final residual = 1.660969e-08, No Iterations 0
DILUPBiCG:  Solving for Uz, Initial residual = 1, Final residual = 1.1802644e-05, No Iterations 2
DILUPBiCG:  Solving for h, Initial residual = 0.9999998, Final residual = 0.0002072931, No Iterations 2
GAMG:  Solving for p_rgh, Initial residual = 0.99736122, Final residual = 0.00051404051, No Iterations 3
time step continuity errors : sum local = 8.432967e-06, global = -1.6539157e-08, cumulative = -1.6539157e-08
ExecutionTime = 1.66 s  ClockTime = 2 s
Inflow      : -1.3839378e-11 [kg/s]
Outflow     : -1.5964416e-11 [kg/s]
EnergyInflow  : -4.0890132e-06 [W]
EnergyOutflow : -4.7168815e-06 [W]
rho max/avg/min : 1.2016456 1.2015652 1.2013209
T   max/avg/min : 293.74555 293.70272 293.7
P   max/avg/min : 101324.94 101319.11 101313.27
Prg max/avg/min : 101325 101325 101325
U   max/avg/min : 3.5565293e-08 -3.9403337e-10 -4.4387618e-07
Prg max-min : 0.0024946801
 
Iteration Number = 2

DILUPBiCG:  Solving for Ux, Initial residual = 0.26339045, Final residual = 2.8347147e-06, No Iterations 2
DILUPBiCG:  Solving for Uy, Initial residual = 0.26860392, Final residual = 2.0954144e-06, No Iterations 2
DILUPBiCG:  Solving for Uz, Initial residual = 0.35465735, Final residual = 3.405078e-06, No Iterations 2
DILUPBiCG:  Solving for h, Initial residual = 0.27428541, Final residual = 6.0532388e-05, No Iterations 2
GAMG:  Solving for p_rgh, Initial residual = 0.16955668, Final residual = 0.00010344773, No Iterations 4
time step continuity errors : sum local = 3.6770899e-06, global = -3.8953594e-08, cumulative = -5.5492751e-08
ExecutionTime = 2.44 s  ClockTime = 2 s
Inflow      : -9.2808358e-12 [kg/s]
Outflow     : -1.4285798e-11 [kg/s]
EnergyInflow  : -2.7421362e-06 [W]
EnergyOutflow : -4.2209133e-06 [W]
rho max/avg/min : 1.2016456 1.2015541 1.2012146
T   max/avg/min : 293.77153 293.70545 293.7
P   max/avg/min : 101324.94 101319.11 101313.27
Prg max/avg/min : 101325 101325 101325
U   max/avg/min : 4.6051933e-08 -2.8652483e-10 -4.3661464e-07
Prg max-min : 0.0035020089
 
Iteration Number = 3

DILUPBiCG:  Solving for Ux, Initial residual = 0.20749029, Final residual = 8.4882542e-05, No Iterations 1
DILUPBiCG:  Solving for Uy, Initial residual = 0.19193467, Final residual = 8.8708822e-05, No Iterations 1
DILUPBiCG:  Solving for Uz, Initial residual = 0.27137897, Final residual = 1.3241095e-06, No Iterations 2
DILUPBiCG:  Solving for h, Initial residual = 0.18187054, Final residual = 5.7005538e-05, No Iterations 2
GAMG:  Solving for p_rgh, Initial residual = 0.10862084, Final residual = 0.00010218323, No Iterations 4
time step continuity errors : sum local = 4.132977e-06, global = -1.3645367e-08, cumulative = -6.9138117e-08
ExecutionTime = 3.22 s  ClockTime = 3 s
Inflow      : -1.2741862e-11 [kg/s]
Outflow     : -1.449509e-11 [kg/s]
EnergyInflow  : -3.7647385e-06 [W]
EnergyOutflow : -4.2827505e-06 [W]
rho max/avg/min : 1.2016456 1.2015425 1.201132
T   max/avg/min : 293.79175 293.70828 293.7
P   max/avg/min : 101324.94 101319.11 101313.27
Prg max/avg/min : 101325 101325 101325
U   max/avg/min : 6.1514399e-08 -3.9396864e-12 -4.5894775e-07
Prg max-min : 0.004278261
 
Iteration Number = 4

DILUPBiCG:  Solving for Ux, Initial residual = 0.16606763, Final residual = 9.5338775e-05, No Iterations 1
DILUPBiCG:  Solving for Uy, Initial residual = 0.149641, Final residual = 9.6524032e-05, No Iterations 1
DILUPBiCG:  Solving for Uz, Initial residual = 0.22386685, Final residual = 1.0774348e-06, No Iterations 2
DILUPBiCG:  Solving for h, Initial residual = 0.13482508, Final residual = 6.0972523e-05, No Iterations 2
GAMG:  Solving for p_rgh, Initial residual = 0.08553047, Final residual = 7.8161432e-05, No Iterations 5
time step continuity errors : sum local = 3.4260286e-06, global = 4.2161478e-07, cumulative = 3.5247666e-07
ExecutionTime = 4.04 s  ClockTime = 4 s
Inflow      : -7.0268251e-11 [kg/s]
Outflow     : -1.6096972e-11 [kg/s]
EnergyInflow  : -2.0761612e-05 [W]
EnergyOutflow : -4.7560445e-06 [W]
rho max/avg/min : 1.2016456 1.2015305 1.2010604
T   max/avg/min : 293.80925 293.71121 293.7
P   max/avg/min : 101324.94 101319.11 101313.27
Prg max/avg/min : 101325 101325 101325
U   max/avg/min : 7.7329397e-08 -4.0138183e-10 -1.341367e-06
Prg max-min : 0.004954617
 
Iteration Number = 5

DILUPBiCG:  Solving for Ux, Initial residual = 0.12914384, Final residual = 9.7567339e-05, No Iterations 1
DILUPBiCG:  Solving for Uy, Initial residual = 0.11510699, Final residual = 9.7664418e-05, No Iterations 1
DILUPBiCG:  Solving for Uz, Initial residual = 0.19344006, Final residual = 1.4659065e-06, No Iterations 2
DILUPBiCG:  Solving for h, Initial residual = 0.10808445, Final residual = 6.667731e-05, No Iterations 2
GAMG:  Solving for p_rgh, Initial residual = 0.075362427, Final residual = 6.7288119e-05, No Iterations 5
time step continuity errors : sum local = 3.0813978e-06, global = -1.0062003e-08, cumulative = 3.4241465e-07
ExecutionTime = 4.85 s  ClockTime = 5 s
Inflow      : -1.7112058e-11 [kg/s]
Outflow     : -1.8404877e-11 [kg/s]
EnergyInflow  : -5.0559663e-06 [W]
EnergyOutflow : -5.4379398e-06 [W]
rho max/avg/min : 1.2016456 1.2015181 1.2009957
T   max/avg/min : 293.82508 293.71425 293.7
P   max/avg/min : 101324.94 101319.11 101313.27
Prg max/avg/min : 101325 101325 101324.99
U   max/avg/min : 1.1397694e-07 7.8716251e-10 -8.9924944e-07
Prg max-min : 0.0055566852
 
Iteration Number = 6

DILUPBiCG:  Solving for Ux, Initial residual = 0.10783241, Final residual = 9.8767086e-05, No Iterations 1
DILUPBiCG:  Solving for Uy, Initial residual = 0.095433939, Final residual = 1.4805937e-07, No Iterations 2
DILUPBiCG:  Solving for Uz, Initial residual = 0.17154355, Final residual = 1.0734139e-06, No Iterations 2
DILUPBiCG:  Solving for h, Initial residual = 0.090782325, Final residual = 7.3036791e-05, No Iterations 2
GAMG:  Solving for p_rgh, Initial residual = 0.070906179, Final residual = 5.0848962e-05, No Iterations 6
time step continuity errors : sum local = 2.398234e-06, global = 7.8416742e-08, cumulative = 4.208314e-07
ExecutionTime = 5.68 s  ClockTime = 6 s
Inflow      : -3.0767443e-11 [kg/s]
Outflow     : -2.0692048e-11 [kg/s]
EnergyInflow  : -9.0906164e-06 [W]
EnergyOutflow : -6.1137069e-06 [W]
rho max/avg/min : 1.2016456 1.2015053 1.2009358
T   max/avg/min : 293.83974 293.71739 293.7
P   max/avg/min : 101324.94 101319.11 101313.27
Prg max/avg/min : 101325 101325 101324.99
U   max/avg/min : 1.5601332e-07 2.4225059e-09 -7.5611598e-07
Prg max-min : 0.0061122243
 
Iteration Number = 7

DILUPBiCG:  Solving for Ux, Initial residual = 0.092559482, Final residual = 2.7246926e-07, No Iterations 2
DILUPBiCG:  Solving for Uy, Initial residual = 0.082524553, Final residual = 1.472488e-07, No Iterations 2
DILUPBiCG:  Solving for Uz, Initial residual = 0.14746245, Final residual = 7.8617703e-07, No Iterations 2
DILUPBiCG:  Solving for h, Initial residual = 0.078621361, Final residual = 8.398919e-06, No Iterations 3
GAMG:  Solving for p_rgh, Initial residual = 0.068752684, Final residual = 6.3042327e-05, No Iterations 6
time step continuity errors : sum local = 3.0551403e-06, global = -8.2257739e-08, cumulative = 3.3857366e-07
ExecutionTime = 6.61 s  ClockTime = 7 s
Inflow      : -1.2018307e-11 [kg/s]
Outflow     : -2.2587213e-11 [kg/s]
EnergyInflow  : -3.5509553e-06 [W]
EnergyOutflow : -6.673647e-06 [W]
rho max/avg/min : 1.2016456 1.201492 1.2008794
T   max/avg/min : 293.85354 293.72063 293.7
P   max/avg/min : 101324.94 101319.11 101313.27
Prg max/avg/min : 101325 101325 101324.99
U   max/avg/min : 2.0756767e-07 4.7557666e-09 -8.5483496e-07
Prg max-min : 0.0066313353
 
Iteration Number = 8

DILUPBiCG:  Solving for Ux, Initial residual = 0.081629578, Final residual = 3.0088353e-07, No Iterations 2
DILUPBiCG:  Solving for Uy, Initial residual = 0.07413524, Final residual = 1.5413045e-07, No Iterations 2
DILUPBiCG:  Solving for Uz, Initial residual = 0.13375042, Final residual = 7.4495592e-07, No Iterations 2
DILUPBiCG:  Solving for h, Initial residual = 0.069594039, Final residual = 9.3253277e-06, No Iterations 3
GAMG:  Solving for p_rgh, Initial residual = 0.068261851, Final residual = 5.3568614e-05, No Iterations 6
time step continuity errors : sum local = 2.6978121e-06, global = 1.5926914e-07, cumulative = 4.978428e-07
ExecutionTime = 7.48 s  ClockTime = 7 s
Inflow      : -4.4755679e-11 [kg/s]
Outflow     : -2.4291944e-11 [kg/s]
EnergyInflow  : -1.3223611e-05 [W]
EnergyOutflow : -7.1773164e-06 [W]
rho max/avg/min : 1.2016456 1.2014784 1.2008259
T   max/avg/min : 293.86665 293.72395 293.7
P   max/avg/min : 101324.94 101319.11 101313.27
Prg max/avg/min : 101325 101325 101324.99
U   max/avg/min : 2.6531363e-07 7.8368748e-09 -1.092795e-06
Prg max-min : 0.0071257143
 
Iteration Number = 9

DILUPBiCG:  Solving for Ux, Initial residual = 0.073721967, Final residual = 3.4639702e-07, No Iterations 2
DILUPBiCG:  Solving for Uy, Initial residual = 0.068409002, Final residual = 1.6577639e-07, No Iterations 2
DILUPBiCG:  Solving for Uz, Initial residual = 0.12236393, Final residual = 7.1909323e-07, No Iterations 2
DILUPBiCG:  Solving for h, Initial residual = 0.062610753, Final residual = 1.0199197e-05, No Iterations 3
GAMG:  Solving for p_rgh, Initial residual = 0.068367513, Final residual = 6.5507242e-05, No Iterations 6
time step continuity errors : sum local = 3.4552931e-06, global = 1.0389281e-07, cumulative = 6.017356e-07
ExecutionTime = 8.37 s  ClockTime = 8 s
Inflow      : -3.9136424e-11 [kg/s]
Outflow     : -2.5787731e-11 [kg/s]
EnergyInflow  : -1.1563334e-05 [W]
EnergyOutflow : -7.6192444e-06 [W]
rho max/avg/min : 1.2016456 1.2014645 1.2007746
T   max/avg/min : 293.87919 293.72736 293.7
P   max/avg/min : 101324.94 101319.11 101313.27
Prg max/avg/min : 101325 101325 101324.99
U   max/avg/min : 3.3360241e-07 1.2848646e-08 -1.2354655e-06
Prg max-min : 0.007591367
 
Iteration Number = 10

DILUPBiCG:  Solving for Ux, Initial residual = 0.068416598, Final residual = 3.9004615e-07, No Iterations 2
DILUPBiCG:  Solving for Uy, Initial residual = 0.064442524, Final residual = 1.8457397e-07, No Iterations 2
DILUPBiCG:  Solving for Uz, Initial residual = 0.11268862, Final residual = 6.684196e-07, No Iterations 2
DILUPBiCG:  Solving for h, Initial residual = 0.057042771, Final residual = 1.0969294e-05, No Iterations 3
GAMG:  Solving for p_rgh, Initial residual = 0.069325881, Final residual = 6.5559839e-05, No Iterations 6
time step continuity errors : sum local = 3.6583048e-06, global = 1.0727639e-07, cumulative = 7.0901199e-07
ExecutionTime = 9.28 s  ClockTime = 9 s
Inflow      : -4.1121364e-11 [kg/s]
Outflow     : -2.7337931e-11 [kg/s]
EnergyInflow  : -1.2149809e-05 [W]
EnergyOutflow : -8.0772401e-06 [W]
rho max/avg/min : 1.2016456 1.2014502 1.2007252
T   max/avg/min : 293.89128 293.73085 293.7
P   max/avg/min : 101324.94 101319.11 101313.27
Prg max/avg/min : 101325 101325 101324.99
U   max/avg/min : 4.1140933e-07 1.9988403e-08 -1.4350283e-06
Prg max-min : 0.0080447589
 
Iteration Number = 11

DILUPBiCG:  Solving for Ux, Initial residual = 0.064609452, Final residual = 4.3154251e-07, No Iterations 2
DILUPBiCG:  Solving for Uy, Initial residual = 0.061677715, Final residual = 2.0752616e-07, No Iterations 2
DILUPBiCG:  Solving for Uz, Initial residual = 0.10558557, Final residual = 6.4898489e-07, No Iterations 2
DILUPBiCG:  Solving for h, Initial residual = 0.052491758, Final residual = 1.1688287e-05, No Iterations 3
GAMG:  Solving for p_rgh, Initial residual = 0.070405394, Final residual = 6.9934743e-05, No Iterations 8
time step continuity errors : sum local = 4.1638176e-06, global = -1.5833633e-07, cumulative = 5.5067566e-07
ExecutionTime = 10.28 s  ClockTime = 10 s
Inflow      : -8.6051194e-12 [kg/s]
Outflow     : -2.8949002e-11 [kg/s]
EnergyInflow  : -2.5424875e-06 [W]
EnergyOutflow : -8.5532102e-06 [W]
rho max/avg/min : 1.2016456 1.2014357 1.2006775
T   max/avg/min : 293.90296 293.73441 293.7
P   max/avg/min : 101324.94 101319.11 101313.27
Prg max/avg/min : 101325 101325 101324.99
U   max/avg/min : 5.0097256e-07 2.9699394e-08 -1.6954604e-06
Prg max-min : 0.0084795359
 
Iteration Number = 12

DILUPBiCG:  Solving for Ux, Initial residual = 0.061835664, Final residual = 4.6638158e-07, No Iterations 2
DILUPBiCG:  Solving for Uy, Initial residual = 0.059564209, Final residual = 2.3376419e-07, No Iterations 2
DILUPBiCG:  Solving for Uz, Initial residual = 0.099897067, Final residual = 6.3713421e-07, No Iterations 2
DILUPBiCG:  Solving for h, Initial residual = 0.0486981, Final residual = 1.2345156e-05, No Iterations 3
GAMG:  Solving for p_rgh, Initial residual = 0.070919634, Final residual = 5.8872456e-05, No Iterations 8
time step continuity errors : sum local = 3.7673083e-06, global = 1.3318598e-07, cumulative = 6.8386164e-07
ExecutionTime = 11.26 s  ClockTime = 11 s
Inflow      : -4.736565e-11 [kg/s]
Outflow     : -3.0253217e-11 [kg/s]
EnergyInflow  : -1.3994759e-05 [W]
EnergyOutflow : -8.9385017e-06 [W]
rho max/avg/min : 1.2016456 1.2014208 1.2006312
T   max/avg/min : 293.91429 293.73804 293.7
P   max/avg/min : 101324.94 101319.11 101313.27
Prg max/avg/min : 101325 101325 101324.99
U   max/avg/min : 6.0394086e-07 4.2218979e-08 -1.9809443e-06
Prg max-min : 0.0089058928
 
Iteration Number = 13

DILUPBiCG:  Solving for Ux, Initial residual = 0.059809185, Final residual = 4.956563e-07, No Iterations 2
DILUPBiCG:  Solving for Uy, Initial residual = 0.05786683, Final residual = 2.6182756e-07, No Iterations 2
DILUPBiCG:  Solving for Uz, Initial residual = 0.094661047, Final residual = 6.214226e-07, No Iterations 2
DILUPBiCG:  Solving for h, Initial residual = 0.045490743, Final residual = 1.2985583e-05, No Iterations 3
GAMG:  Solving for p_rgh, Initial residual = 0.070442168, Final residual = 6.9983024e-05, No Iterations 9
time step continuity errors : sum local = 4.8451824e-06, global = 3.8312766e-07, cumulative = 1.0669893e-06
ExecutionTime = 12.3 s  ClockTime = 12 s
Inflow      : -8.0585492e-11 [kg/s]
Outflow     : -3.135924e-11 [kg/s]
EnergyInflow  : -2.3809967e-05 [W]
EnergyOutflow : -9.2652171e-06 [W]
rho max/avg/min : 1.2016456 1.2014057 1.2005861
T   max/avg/min : 293.92533 293.74173 293.7
P   max/avg/min : 101324.94 101319.11 101313.27
Prg max/avg/min : 101325 101325 101324.99
U   max/avg/min : 7.216811e-07 5.7646943e-08 -2.3368722e-06
Prg max-min : 0.0093156704
 
Iteration Number = 14

DILUPBiCG:  Solving for Ux, Initial residual = 0.058339063, Final residual = 5.1815926e-07, No Iterations 2
DILUPBiCG:  Solving for Uy, Initial residual = 0.056427046, Final residual = 2.8744204e-07, No Iterations 2
DILUPBiCG:  Solving for Uz, Initial residual = 0.090119341, Final residual = 6.092445e-07, No Iterations 2
DILUPBiCG:  Solving for h, Initial residual = 0.042733241, Final residual = 1.356312e-05, No Iterations 3
GAMG:  Solving for p_rgh, Initial residual = 0.068700502, Final residual = 5.7479538e-05, No Iterations 6
time step continuity errors : sum local = 4.3484739e-06, global = -2.1085754e-07, cumulative = 8.5613176e-07
ExecutionTime = 13.19 s  ClockTime = 13 s
Inflow      : -5.2470085e-12 [kg/s]
Outflow     : -3.2339092e-11 [kg/s]
EnergyInflow  : -1.5502927e-06 [W]
EnergyOutflow : -9.5546316e-06 [W]
rho max/avg/min : 1.2016456 1.2013903 1.2005422
T   max/avg/min : 293.93609 293.74549 293.7
P   max/avg/min : 101324.94 101319.11 101313.27
Prg max/avg/min : 101325 101325 101324.99
U   max/avg/min : 8.5865295e-07 7.8839714e-08 -2.6672732e-06
Prg max-min : 0.0097255658
 
Iteration Number = 15

DILUPBiCG:  Solving for Ux, Initial residual = 0.057356114, Final residual = 5.3878909e-07, No Iterations 2
DILUPBiCG:  Solving for Uy, Initial residual = 0.055280285, Final residual = 3.1258528e-07, No Iterations 2
DILUPBiCG:  Solving for Uz, Initial residual = 0.08696999, Final residual = 6.0610989e-07, No Iterations 2
DILUPBiCG:  Solving for h, Initial residual = 0.040342851, Final residual = 1.4090214e-05, No Iterations 3
GAMG:  Solving for p_rgh, Initial residual = 0.065965792, Final residual = 6.1436822e-05, No Iterations 10
time step continuity errors : sum local = 5.1203735e-06, global = 2.4585024e-07, cumulative = 1.101982e-06
ExecutionTime = 14.26 s  ClockTime = 14 s
Inflow      : -6.5239085e-11 [kg/s]
Outflow     : -3.3650956e-11 [kg/s]
EnergyInflow  : -1.9275683e-05 [W]
EnergyOutflow : -9.9421143e-06 [W]
rho max/avg/min : 1.2016456 1.2013747 1.2004992
T   max/avg/min : 293.94661 293.74931 293.7
P   max/avg/min : 101324.94 101319.11 101313.27
Prg max/avg/min : 101325 101325 101324.99
U   max/avg/min : 1.0164578e-06 1.0375502e-07 -3.0355014e-06
Prg max-min : 0.010121553
 
Iteration Number = 16

DILUPBiCG:  Solving for Ux, Initial residual = 0.056601737, Final residual = 5.5659355e-07, No Iterations 2
DILUPBiCG:  Solving for Uy, Initial residual = 0.054217648, Final residual = 3.3257335e-07, No Iterations 2
DILUPBiCG:  Solving for Uz, Initial residual = 0.082382422, Final residual = 5.6976277e-07, No Iterations 2
DILUPBiCG:  Solving for h, Initial residual = 0.038245862, Final residual = 1.4614901e-05, No Iterations 3
GAMG:  Solving for p_rgh, Initial residual = 0.062292896, Final residual = 5.5755362e-05, No Iterations 11
time step continuity errors : sum local = 5.1481996e-06, global = 3.4730145e-07, cumulative = 1.4492834e-06
ExecutionTime = 15.37 s  ClockTime = 15 s
Inflow      : -7.8890188e-11 [kg/s]
Outflow     : -3.4267076e-11 [kg/s]
EnergyInflow  : -2.3309069e-05 [W]
EnergyOutflow : -1.0123996e-05 [W]
rho max/avg/min : 1.2016456 1.2013589 1.2004571
T   max/avg/min : 293.95691 293.75319 293.7
P   max/avg/min : 101324.94 101319.11 101313.27
Prg max/avg/min : 101325 101325 101324.99
U   max/avg/min : 1.1889959e-06 1.3306878e-07 -3.4039171e-06
Prg max-min : 0.01052017
 
Iteration Number = 17

DILUPBiCG:  Solving for Ux, Initial residual = 0.055954122, Final residual = 5.738243e-07, No Iterations 2
DILUPBiCG:  Solving for Uy, Initial residual = 0.053216223, Final residual = 3.5412703e-07, No Iterations 2
DILUPBiCG:  Solving for Uz, Initial residual = 0.078808084, Final residual = 5.3822007e-07, No Iterations 2
DILUPBiCG:  Solving for h, Initial residual = 0.036388268, Final residual = 1.5084245e-05, No Iterations 3
GAMG:  Solving for p_rgh, Initial residual = 0.058584329, Final residual = 5.4549535e-05, No Iterations 12
time step continuity errors : sum local = 5.5890072e-06, global = -3.3679551e-07, cumulative = 1.1124879e-06
ExecutionTime = 16.53 s  ClockTime = 16 s
Inflow      : 8.8491038e-12 [kg/s]
Outflow     : -3.4424151e-11 [kg/s]
EnergyInflow  : 2.6145757e-06 [W]
EnergyOutflow : -1.0170207e-05 [W]
rho max/avg/min : 1.2016456 1.2013428 1.2004159
T   max/avg/min : 293.96701 293.75712 293.7
P   max/avg/min : 101324.94 101319.11 101313.27
Prg max/avg/min : 101325 101325 101324.99
U   max/avg/min : 1.3906719e-06 1.6941509e-07 -3.7906922e-06
Prg max-min : 0.010910619
 
Iteration Number = 18

DILUPBiCG:  Solving for Ux, Initial residual = 0.055301821, Final residual = 5.8941824e-07, No Iterations 2
DILUPBiCG:  Solving for Uy, Initial residual = 0.052170897, Final residual = 3.7041077e-07, No Iterations 2
DILUPBiCG:  Solving for Uz, Initial residual = 0.075999678, Final residual = 5.2318426e-07, No Iterations 2
DILUPBiCG:  Solving for h, Initial residual = 0.034735086, Final residual = 1.5513558e-05, No Iterations 3
GAMG:  Solving for p_rgh, Initial residual = 0.05467932, Final residual = 5.1116339e-05, No Iterations 12
time step continuity errors : sum local = 5.798911e-06, global = 3.3094367e-07, cumulative = 1.4434316e-06
ExecutionTime = 17.68 s  ClockTime = 18 s
Inflow      : -7.675917e-11 [kg/s]
Outflow     : -3.4237791e-11 [kg/s]
EnergyInflow  : -2.2679433e-05 [W]
EnergyOutflow : -1.0114896e-05 [W]
rho max/avg/min : 1.2016456 1.2013265 1.2003754
T   max/avg/min : 293.97693 293.7611 293.70001
P   max/avg/min : 101324.94 101319.11 101313.27
Prg max/avg/min : 101325 101325 101324.99
U   max/avg/min : 1.6041794e-06 2.1000866e-07 -4.2056408e-06
Prg max-min : 0.011303545
 
Iteration Number = 19

DILUPBiCG:  Solving for Ux, Initial residual = 0.054689065, Final residual = 6.0414428e-07, No Iterations 2
DILUPBiCG:  Solving for Uy, Initial residual = 0.051149287, Final residual = 3.8525788e-07, No Iterations 2
DILUPBiCG:  Solving for Uz, Initial residual = 0.072562406, Final residual = 4.916618e-07, No Iterations 2
DILUPBiCG:  Solving for h, Initial residual = 0.033252479, Final residual = 1.5888334e-05, No Iterations 3
GAMG:  Solving for p_rgh, Initial residual = 0.051113445, Final residual = 4.8785963e-05, No Iterations 12
time step continuity errors : sum local = 6.1034536e-06, global = 3.5106241e-07, cumulative = 1.794494e-06
ExecutionTime = 18.84 s  ClockTime = 19 s
Inflow      : -7.8879697e-11 [kg/s]
Outflow     : -3.3773356e-11 [kg/s]
EnergyInflow  : -2.3305969e-05 [W]
EnergyOutflow : -9.9773696e-06 [W]
rho max/avg/min : 1.2016456 1.2013101 1.2003356
T   max/avg/min : 293.98669 293.76512 293.70001
P   max/avg/min : 101324.94 101319.11 101313.27
Prg max/avg/min : 101325 101325 101324.99
U   max/avg/min : 1.8483876e-06 2.5688958e-07 -4.6898454e-06
Prg max-min : 0.011694673
 
Iteration Number = 20

DILUPBiCG:  Solving for Ux, Initial residual = 0.054080874, Final residual = 6.1751996e-07, No Iterations 2
DILUPBiCG:  Solving for Uy, Initial residual = 0.050101561, Final residual = 3.9622612e-07, No Iterations 2
DILUPBiCG:  Solving for Uz, Initial residual = 0.069513361, Final residual = 4.3593737e-07, No Iterations 2
DILUPBiCG:  Solving for h, Initial residual = 0.031913598, Final residual = 1.6222989e-05, No Iterations 3
GAMG:  Solving for p_rgh, Initial residual = 0.047664177, Final residual = 4.6945208e-05, No Iterations 10
time step continuity errors : sum local = 6.4442939e-06, global = -3.4310076e-07, cumulative = 1.4513932e-06
ExecutionTime = 19.92 s  ClockTime = 20 s
Inflow      : 1.1617462e-11 [kg/s]
Outflow     : -3.2465925e-11 [kg/s]
EnergyInflow  : 3.4325208e-06 [W]
EnergyOutflow : -9.5906994e-06 [W]
rho max/avg/min : 1.2016455 1.2012935 1.2002964
T   max/avg/min : 293.99629 293.76919 293.70001
P   max/avg/min : 101324.94 101319.11 101313.27
Prg max/avg/min : 101325 101325 101324.99
U   max/avg/min : 2.1182011e-06 3.1149981e-07 -5.2447689e-06
Prg max-min : 0.012088749
 
Iteration Number = 21

DILUPBiCG:  Solving for Ux, Initial residual = 0.053487085, Final residual = 6.3015315e-07, No Iterations 2
DILUPBiCG:  Solving for Uy, Initial residual = 0.049075159, Final residual = 4.0538244e-07, No Iterations 2
DILUPBiCG:  Solving for Uz, Initial residual = 0.066978712, Final residual = 4.1326947e-07, No Iterations 2
DILUPBiCG:  Solving for h, Initial residual = 0.030696471, Final residual = 1.6539001e-05, No Iterations 3
GAMG:  Solving for p_rgh, Initial residual = 0.044606483, Final residual = 4.3166665e-05, No Iterations 13
time step continuity errors : sum local = 6.4688512e-06, global = -4.0053646e-07, cumulative = 1.0508568e-06
ExecutionTime = 21.1 s  ClockTime = 21 s
Inflow      : 2.1005485e-11 [kg/s]
Outflow     : -3.0457541e-11 [kg/s]
EnergyInflow  : 6.2063267e-06 [W]
EnergyOutflow : -8.9968496e-06 [W]
rho max/avg/min : 1.2016455 1.2012766 1.2002578
T   max/avg/min : 294.00575 293.77331 293.70002
P   max/avg/min : 101324.94 101319.11 101313.27
Prg max/avg/min : 101325 101325 101324.99
U   max/avg/min : 2.4364598e-06 3.7220713e-07 -5.8183411e-06
Prg max-min : 0.012483727
 
Iteration Number = 22

DILUPBiCG:  Solving for Ux, Initial residual = 0.052881166, Final residual = 6.4142018e-07, No Iterations 2
DILUPBiCG:  Solving for Uy, Initial residual = 0.048047729, Final residual = 4.1175341e-07, No Iterations 2
DILUPBiCG:  Solving for Uz, Initial residual = 0.064072229, Final residual = 3.6790291e-07, No Iterations 2
DILUPBiCG:  Solving for h, Initial residual = 0.029586027, Final residual = 1.6824012e-05, No Iterations 3
GAMG:  Solving for p_rgh, Initial residual = 0.041721752, Final residual = 4.1200249e-05, No Iterations 12
time step continuity errors : sum local = 6.7073159e-06, global = 3.978721e-07, cumulative = 1.4487289e-06
ExecutionTime = 22.24 s  ClockTime = 22 s
Inflow      : -7.8834527e-11 [kg/s]
Outflow     : -2.7713831e-11 [kg/s]
EnergyInflow  : -2.3292623e-05 [W]
EnergyOutflow : -8.1856354e-06 [W]
rho max/avg/min : 1.2016455 1.2012597 1.2002197
T   max/avg/min : 294.01507 293.77746 293.70002
P   max/avg/min : 101324.94 101319.11 101313.27
Prg max/avg/min : 101325 101325 101324.99
U   max/avg/min : 2.7093295e-06 4.3817889e-07 -6.4199962e-06
Prg max-min : 0.012876962
 
Iteration Number = 23

DILUPBiCG:  Solving for Ux, Initial residual = 0.052287686, Final residual = 6.5179575e-07, No Iterations 2
DILUPBiCG:  Solving for Uy, Initial residual = 0.047044441, Final residual = 4.1662916e-07, No Iterations 2
DILUPBiCG:  Solving for Uz, Initial residual = 0.061500166, Final residual = 3.6059599e-07, No Iterations 2
DILUPBiCG:  Solving for h, Initial residual = 0.028569178, Final residual = 1.7061824e-05, No Iterations 3
GAMG:  Solving for p_rgh, Initial residual = 0.039143417, Final residual = 3.6116945e-05, No Iterations 13
time step continuity errors : sum local = 6.3573589e-06, global = -4.1442856e-07, cumulative = 1.0343003e-06
ExecutionTime = 23.44 s  ClockTime = 23 s
Inflow      : 2.9172206e-11 [kg/s]
Outflow     : -2.407575e-11 [kg/s]
EnergyInflow  : 8.6192842e-06 [W]
EnergyOutflow : -7.1100651e-06 [W]
rho max/avg/min : 1.2016455 1.2012425 1.2001822
T   max/avg/min : 294.02427 293.78165 293.70003
P   max/avg/min : 101324.94 101319.11 101313.27
Prg max/avg/min : 101325 101325 101324.99
U   max/avg/min : 3.0867385e-06 5.1378218e-07 -7.0111975e-06
Prg max-min : 0.013276369
 
Iteration Number = 24

DILUPBiCG:  Solving for Ux, Initial residual = 0.051695487, Final residual = 6.6121212e-07, No Iterations 2
DILUPBiCG:  Solving for Uy, Initial residual = 0.04605529, Final residual = 4.198349e-07, No Iterations 2
DILUPBiCG:  Solving for Uz, Initial residual = 0.059215852, Final residual = 3.2518406e-07, No Iterations 2
DILUPBiCG:  Solving for h, Initial residual = 0.027633961, Final residual = 1.7276945e-05, No Iterations 3
GAMG:  Solving for p_rgh, Initial residual = 0.036769091, Final residual = 3.4193629e-05, No Iterations 12
time step continuity errors : sum local = 6.4784422e-06, global = 3.8047506e-07, cumulative = 1.4147754e-06
ExecutionTime = 24.62 s  ClockTime = 25 s
Inflow      : -6.7971711e-11 [kg/s]
Outflow     : -1.9086279e-11 [kg/s]
EnergyInflow  : -2.0083071e-05 [W]
EnergyOutflow : -5.6351034e-06 [W]
rho max/avg/min : 1.2016454 1.2012253 1.2001451
T   max/avg/min : 294.03336 293.78587 293.70004
P   max/avg/min : 101324.94 101319.11 101313.27
Prg max/avg/min : 101325 101325 101324.99
U   max/avg/min : 3.4339204e-06 5.9536802e-07 -7.5862147e-06
Prg max-min : 0.013676272
 
Iteration Number = 25

DILUPBiCG:  Solving for Ux, Initial residual = 0.051100076, Final residual = 6.6914676e-07, No Iterations 2
DILUPBiCG:  Solving for Uy, Initial residual = 0.045085024, Final residual = 4.2197708e-07, No Iterations 2
DILUPBiCG:  Solving for Uz, Initial residual = 0.056666408, Final residual = 3.0396628e-07, No Iterations 2
DILUPBiCG:  Solving for h, Initial residual = 0.026770635, Final residual = 1.7442729e-05, No Iterations 3
GAMG:  Solving for p_rgh, Initial residual = 0.034625863, Final residual = 3.2134313e-05, No Iterations 13
time step continuity errors : sum local = 6.5234447e-06, global = -4.2156513e-07, cumulative = 9.9321026e-07
ExecutionTime = 25.82 s  ClockTime = 26 s
Inflow      : 4.0840086e-11 [kg/s]
Outflow     : -1.3324815e-11 [kg/s]
EnergyInflow  : 1.2066702e-05 [W]
EnergyOutflow : -3.9319157e-06 [W]
rho max/avg/min : 1.2016454 1.2012079 1.2001084
T   max/avg/min : 294.04234 293.79013 293.70005
P   max/avg/min : 101324.94 101319.11 101313.27
Prg max/avg/min : 101325 101325 101324.99
U   max/avg/min : 3.9818833e-06 6.8608321e-07 -8.1921149e-06
Prg max-min : 0.014085269
 
Iteration Number = 26

DILUPBiCG:  Solving for Ux, Initial residual = 0.050510757, Final residual = 6.7591867e-07, No Iterations 2
DILUPBiCG:  Solving for Uy, Initial residual = 0.044127046, Final residual = 4.2310814e-07, No Iterations 2
DILUPBiCG:  Solving for Uz, Initial residual = 0.054514335, Final residual = 2.7249226e-07, No Iterations 2
DILUPBiCG:  Solving for h, Initial residual = 0.025968987, Final residual = 1.75875e-05, No Iterations 3
GAMG:  Solving for p_rgh, Initial residual = 0.032671927, Final residual = 3.0206442e-05, No Iterations 12
time step continuity errors : sum local = 6.5482625e-06, global = 3.8491647e-07, cumulative = 1.3781267e-06
ExecutionTime = 26.99 s  ClockTime = 27 s
Inflow      : -5.7153261e-11 [kg/s]
Outflow     : -7.6971722e-12 [kg/s]
EnergyInflow  : -1.6886628e-05 [W]
EnergyOutflow : -2.2681187e-06 [W]
rho max/avg/min : 1.2016453 1.2011903 1.2000722
T   max/avg/min : 294.05121 293.79442 293.70006
P   max/avg/min : 101324.94 101319.11 101313.27
Prg max/avg/min : 101325 101325 101324.99
U   max/avg/min : 4.4395673e-06 7.8284133e-07 -8.7987782e-06
Prg max-min : 0.014497787
 
Iteration Number = 27

DILUPBiCG:  Solving for Ux, Initial residual = 0.049922883, Final residual = 6.8138002e-07, No Iterations 2
DILUPBiCG:  Solving for Uy, Initial residual = 0.04319234, Final residual = 4.2344115e-07, No Iterations 2
DILUPBiCG:  Solving for Uz, Initial residual = 0.052248242, Final residual = 2.611483e-07, No Iterations 2
DILUPBiCG:  Solving for h, Initial residual = 0.025223209, Final residual = 1.7702e-05, No Iterations 3
GAMG:  Solving for p_rgh, Initial residual = 0.030880953, Final residual = 2.8647663e-05, No Iterations 13
time step continuity errors : sum local = 6.6075149e-06, global = -4.2133817e-07, cumulative = 9.5678856e-07
ExecutionTime = 28.18 s  ClockTime = 28 s
Inflow      : 5.2312492e-11 [kg/s]
Outflow     : -1.8232475e-12 [kg/s]
EnergyInflow  : 1.5456364e-05 [W]
EnergyOutflow : -5.3143093e-07 [W]
rho max/avg/min : 1.2016453 1.2011727 1.2000364
T   max/avg/min : 294.06 293.79874 293.70007
P   max/avg/min : 101324.94 101319.11 101313.27
Prg max/avg/min : 101325 101325 101324.99
U   max/avg/min : 5.2655374e-06 8.8845308e-07 -9.4058181e-06
Prg max-min : 0.014910821
 
Iteration Number = 28

DILUPBiCG:  Solving for Ux, Initial residual = 0.049342327, Final residual = 6.8572061e-07, No Iterations 2
DILUPBiCG:  Solving for Uy, Initial residual = 0.042273328, Final residual = 4.2297462e-07, No Iterations 2
DILUPBiCG:  Solving for Uz, Initial residual = 0.050239304, Final residual = 2.365671e-07, No Iterations 2
DILUPBiCG:  Solving for h, Initial residual = 0.024527655, Final residual = 1.7798694e-05, No Iterations 3
GAMG:  Solving for p_rgh, Initial residual = 0.029251562, Final residual = 2.5901305e-05, No Iterations 11
time step continuity errors : sum local = 6.337618e-06, global = 4.3185523e-07, cumulative = 1.3886438e-06
ExecutionTime = 29.3 s  ClockTime = 29 s
Inflow      : -5.1742565e-11 [kg/s]
Outflow     : 3.7444617e-12 [kg/s]
EnergyInflow  : -1.5287972e-05 [W]
EnergyOutflow : 1.1150498e-06 [W]
rho max/avg/min : 1.2016452 1.2011549 1.2000009
T   max/avg/min : 294.06869 293.80309 293.70009
P   max/avg/min : 101324.94 101319.11 101313.27
Prg max/avg/min : 101325 101325 101324.99
U   max/avg/min : 6.1668976e-06 9.9891851e-07 -1.0064539e-05
Prg max-min : 0.015322509
 
Iteration Number = 29

DILUPBiCG:  Solving for Ux, Initial residual = 0.048767361, Final residual = 6.8902523e-07, No Iterations 2
DILUPBiCG:  Solving for Uy, Initial residual = 0.041377554, Final residual = 4.2202003e-07, No Iterations 2
DILUPBiCG:  Solving for Uz, Initial residual = 0.048207951, Final residual = 2.380733e-07, No Iterations 2
DILUPBiCG:  Solving for h, Initial residual = 0.023877173, Final residual = 1.7874954e-05, No Iterations 3
GAMG:  Solving for p_rgh, Initial residual = 0.027740253, Final residual = 2.5858624e-05, No Iterations 13
time step continuity errors : sum local = 6.6915167e-06, global = -4.2000124e-07, cumulative = 9.6864255e-07
ExecutionTime = 30.52 s  ClockTime = 30 s
Inflow      : 6.2206359e-11 [kg/s]
Outflow     : 8.2423945e-12 [kg/s]
EnergyInflow  : 1.8379628e-05 [W]
EnergyOutflow : 2.4455729e-06 [W]
rho max/avg/min : 1.2016451 1.2011371 1.1999658
T   max/avg/min : 294.0773 293.80746 293.70011
P   max/avg/min : 101324.94 101319.11 101313.27
Prg max/avg/min : 101325 101325 101324.99
U   max/avg/min : 7.2611749e-06 1.1176924e-06 -1.0791045e-05
Prg max-min : 0.015732891
 
Iteration Number = 30

DILUPBiCG:  Solving for Ux, Initial residual = 0.048193429, Final residual = 6.9115741e-07, No Iterations 2
DILUPBiCG:  Solving for Uy, Initial residual = 0.040503585, Final residual = 4.2050547e-07, No Iterations 2
DILUPBiCG:  Solving for Uz, Initial residual = 0.04639284, Final residual = 2.1885074e-07, No Iterations 2
DILUPBiCG:  Solving for h, Initial residual = 0.023267693, Final residual = 1.793056e-05, No Iterations 3
GAMG:  Solving for p_rgh, Initial residual = 0.026355921, Final residual = 2.4881668e-05, No Iterations 8
time step continuity errors : sum local = 6.7913123e-06, global = -2.7973921e-07, cumulative = 6.8890334e-07
ExecutionTime = 31.5 s  ClockTime = 31 s
Inflow      : 4.8749758e-11 [kg/s]
Outflow     : 1.2807397e-11 [kg/s]
EnergyInflow  : 1.4403711e-05 [W]
EnergyOutflow : 3.7961831e-06 [W]
rho max/avg/min : 1.201645 1.2011191 1.199931
T   max/avg/min : 294.08583 293.81186 293.70014
P   max/avg/min : 101324.94 101319.11 101313.27
Prg max/avg/min : 101325 101325 101324.99
U   max/avg/min : 8.4167001e-06 1.2413582e-06 -1.1551678e-05
Prg max-min : 0.016142548
 
Iteration Number = 31

DILUPBiCG:  Solving for Ux, Initial residual = 0.04762412, Final residual = 6.9250772e-07, No Iterations 2
DILUPBiCG:  Solving for Uy, Initial residual = 0.039661046, Final residual = 4.1864468e-07, No Iterations 2
DILUPBiCG:  Solving for Uz, Initial residual = 0.044497878, Final residual = 2.0492394e-07, No Iterations 2
DILUPBiCG:  Solving for h, Initial residual = 0.022694826, Final residual = 1.7955103e-05, No Iterations 3
GAMG:  Solving for p_rgh, Initial residual = 0.025082353, Final residual = 2.4779265e-05, No Iterations 12
time step continuity errors : sum local = 7.1124586e-06, global = 4.2305056e-07, cumulative = 1.1119539e-06
ExecutionTime = 32.82 s  ClockTime = 33 s
Inflow      : -3.7820792e-11 [kg/s]
Outflow     : 1.6534963e-11 [kg/s]
EnergyInflow  : -1.1174615e-05 [W]
EnergyOutflow : 4.8995861e-06 [W]
rho max/avg/min : 1.2016449 1.201101 1.1998965
T   max/avg/min : 294.09429 293.81628 293.70016
P   max/avg/min : 101324.94 101319.11 101313.27
Prg max/avg/min : 101325 101325 101324.98
U   max/avg/min : 9.651219e-06 1.368167e-06 -1.2353353e-05
Prg max-min : 0.016552453
 
Iteration Number = 32

DILUPBiCG:  Solving for Ux, Initial residual = 0.047058731, Final residual = 6.9307861e-07, No Iterations 2
DILUPBiCG:  Solving for Uy, Initial residual = 0.038844361, Final residual = 4.1637209e-07, No Iterations 2
DILUPBiCG:  Solving for Uz, Initial residual = 0.042773358, Final residual = 2.0376691e-07, No Iterations 2
DILUPBiCG:  Solving for h, Initial residual = 0.022154611, Final residual = 1.7970851e-05, No Iterations 3
GAMG:  Solving for p_rgh, Initial residual = 0.023917152, Final residual = 2.2061562e-05, No Iterations 13
time step continuity errors : sum local = 6.6438169e-06, global = -3.9679227e-07, cumulative = 7.1516162e-07
ExecutionTime = 34.21 s  ClockTime = 34 s
Inflow      : 7.235665e-11 [kg/s]
Outflow     : 2.1374696e-11 [kg/s]
EnergyInflow  : 2.1378655e-05 [W]
EnergyOutflow : 6.3319549e-06 [W]
rho max/avg/min : 1.2016448 1.2010829 1.1998623
T   max/avg/min : 294.10268 293.82072 293.70019
P   max/avg/min : 101324.94 101319.11 101313.27
Prg max/avg/min : 101325 101325 101324.98
U   max/avg/min : 1.1040718e-05 1.5014003e-06 -1.3198228e-05
Prg max-min : 0.016960842
 
Iteration Number = 33

DILUPBiCG:  Solving for Ux, Initial residual = 0.046501434, Final residual = 6.9249821e-07, No Iterations 2
DILUPBiCG:  Solving for Uy, Initial residual = 0.038056312, Final residual = 4.1369708e-07, No Iterations 2
DILUPBiCG:  Solving for Uz, Initial residual = 0.041181066, Final residual = 1.9469537e-07, No Iterations 2
DILUPBiCG:  Solving for h, Initial residual = 0.021643924, Final residual = 1.7982453e-05, No Iterations 3
GAMG:  Solving for p_rgh, Initial residual = 0.022823558, Final residual = 2.232302e-05, No Iterations 6
time step continuity errors : sum local = 7.040021e-06, global = 6.0575083e-07, cumulative = 1.3209125e-06
ExecutionTime = 35.51 s  ClockTime = 35 s
Inflow      : -5.1637007e-11 [kg/s]
Outflow     : 2.6193039e-11 [kg/s]
EnergyInflow  : -1.5256784e-05 [W]
EnergyOutflow : 7.7582861e-06 [W]
rho max/avg/min : 1.2016447 1.2010646 1.1998283
T   max/avg/min : 294.111 293.82518 293.70023
P   max/avg/min : 101324.94 101319.11 101313.27
Prg max/avg/min : 101325 101325 101324.98
U   max/avg/min : 1.2598523e-05 1.6359471e-06 -1.4097592e-05
Prg max-min : 0.017364224
 
Iteration Number = 34

DILUPBiCG:  Solving for Ux, Initial residual = 0.045951462, Final residual = 6.9195403e-07, No Iterations 2
DILUPBiCG:  Solving for Uy, Initial residual = 0.037290887, Final residual = 4.1097683e-07, No Iterations 2
DILUPBiCG:  Solving for Uz, Initial residual = 0.03960245, Final residual = 1.9493755e-07, No Iterations 2
DILUPBiCG:  Solving for h, Initial residual = 0.021160739, Final residual = 1.793475e-05, No Iterations 3
GAMG:  Solving for p_rgh, Initial residual = 0.021832082, Final residual = 2.0795098e-05, No Iterations 13
time step continuity errors : sum local = 6.854503e-06, global = -4.0051939e-07, cumulative = 9.2039307e-07
ExecutionTime = 36.94 s  ClockTime = 37 s
Inflow      : 8.2071573e-11 [kg/s]
Outflow     : 3.0610741e-11 [kg/s]
EnergyInflow  : 2.4249048e-05 [W]
EnergyOutflow : 9.0666361e-06 [W]
rho max/avg/min : 1.2016445 1.2010463 1.1997946
T   max/avg/min : 294.11926 293.82966 293.70027
P   max/avg/min : 101324.94 101319.11 101313.27
Prg max/avg/min : 101325 101325 101324.98
U   max/avg/min : 1.4228535e-05 1.7750867e-06 -1.5086352e-05
Prg max-min : 0.017766671
 
Iteration Number = 35

DILUPBiCG:  Solving for Ux, Initial residual = 0.045412861, Final residual = 6.9076938e-07, No Iterations 2
DILUPBiCG:  Solving for Uy, Initial residual = 0.036547067, Final residual = 4.0781611e-07, No Iterations 2
DILUPBiCG:  Solving for Uz, Initial residual = 0.038178552, Final residual = 1.8348293e-07, No Iterations 2
DILUPBiCG:  Solving for h, Initial residual = 0.020703195, Final residual = 1.7928478e-05, No Iterations 3
GAMG:  Solving for p_rgh, Initial residual = 0.020887319, Final residual = 1.8750856e-05, No Iterations 12
time step continuity errors : sum local = 6.4448958e-06, global = 3.6952997e-07, cumulative = 1.289923e-06
ExecutionTime = 38.13 s  ClockTime = 38 s
Inflow      : -1.2796512e-11 [kg/s]
Outflow     : 3.4682638e-11 [kg/s]
EnergyInflow  : -3.7808855e-06 [W]
EnergyOutflow : 1.0273157e-05 [W]
rho max/avg/min : 1.2016443 1.2010279 1.1997612
T   max/avg/min : 294.12746 293.83416 293.70031
P   max/avg/min : 101324.94 101319.11 101313.27
Prg max/avg/min : 101325 101325 101324.98
U   max/avg/min : 1.5931087e-05 1.9145572e-06 -1.6145189e-05
Prg max-min : 0.018171265
 
Iteration Number = 36

DILUPBiCG:  Solving for Ux, Initial residual = 0.044881138, Final residual = 6.8898319e-07, No Iterations 2
DILUPBiCG:  Solving for Uy, Initial residual = 0.035836235, Final residual = 4.0466529e-07, No Iterations 2
DILUPBiCG:  Solving for Uz, Initial residual = 0.036776759, Final residual = 1.7836255e-07, No Iterations 2
DILUPBiCG:  Solving for h, Initial residual = 0.020268813, Final residual = 1.7881592e-05, No Iterations 3
GAMG:  Solving for p_rgh, Initial residual = 0.020042477, Final residual = 1.8801259e-05, No Iterations 13
time step continuity errors : sum local = 6.7289551e-06, global = -3.8999195e-07, cumulative = 8.9993109e-07
ExecutionTime = 39.35 s  ClockTime = 39 s
Inflow      : 8.8647308e-11 [kg/s]
Outflow     : 3.8539095e-11 [kg/s]
EnergyInflow  : 2.6191929e-05 [W]
EnergyOutflow : 1.1416393e-05 [W]
rho max/avg/min : 1.2016441 1.2010095 1.199728
T   max/avg/min : 294.1356 293.83868 293.70036
P   max/avg/min : 101324.94 101319.11 101313.27
Prg max/avg/min : 101325 101325 101324.98
U   max/avg/min : 1.7695882e-05 2.0560791e-06 -1.7392523e-05
Prg max-min : 0.018568471
 
Iteration Number = 37

DILUPBiCG:  Solving for Ux, Initial residual = 0.044354251, Final residual = 6.868825e-07, No Iterations 2
DILUPBiCG:  Solving for Uy, Initial residual = 0.035143281, Final residual = 4.0114283e-07, No Iterations 2
DILUPBiCG:  Solving for Uz, Initial residual = 0.035492522, Final residual = 1.682824e-07, No Iterations 2
DILUPBiCG:  Solving for h, Initial residual = 0.019855478, Final residual = 1.7825157e-05, No Iterations 3
GAMG:  Solving for p_rgh, Initial residual = 0.019223414, Final residual = 1.7922094e-05, No Iterations 14
time step continuity errors : sum local = 6.6657799e-06, global = 4.1261888e-07, cumulative = 1.31255e-06
ExecutionTime = 40.61 s  ClockTime = 41 s
Inflow      : -1.0769301e-11 [kg/s]
Outflow     : 4.2246139e-11 [kg/s]
EnergyInflow  : -3.1819213e-06 [W]
EnergyOutflow : 1.2515846e-05 [W]
rho max/avg/min : 1.2016439 1.200991 1.199695
T   max/avg/min : 294.14369 293.84322 293.70041
P   max/avg/min : 101324.94 101319.11 101313.27
Prg max/avg/min : 101325 101325 101324.98
U   max/avg/min : 1.9513767e-05 2.1956769e-06 -1.8972789e-05
Prg max-min : 0.018969608
 
Iteration Number = 38

DILUPBiCG:  Solving for Ux, Initial residual = 0.043839096, Final residual = 6.8433868e-07, No Iterations 2
DILUPBiCG:  Solving for Uy, Initial residual = 0.03448064, Final residual = 3.9760231e-07, No Iterations 2
DILUPBiCG:  Solving for Uz, Initial residual = 0.034268222, Final residual = 1.6884583e-07, No Iterations 2
DILUPBiCG:  Solving for h, Initial residual = 0.019461296, Final residual = 1.7754698e-05, No Iterations 3
GAMG:  Solving for p_rgh, Initial residual = 0.018492748, Final residual = 1.8312966e-05, No Iterations 13
time step continuity errors : sum local = 7.0689204e-06, global = -4.1297296e-07, cumulative = 8.9957701e-07
ExecutionTime = 42.15 s  ClockTime = 42 s
Inflow      : 9.9012686e-11 [kg/s]
Outflow     : 4.5951753e-11 [kg/s]
EnergyInflow  : 2.9254506e-05 [W]
EnergyOutflow : 1.3615462e-05 [W]
rho max/avg/min : 1.2016437 1.2009724 1.1996622
T   max/avg/min : 294.15173 293.84776 293.70047
P   max/avg/min : 101324.94 101319.11 101313.27
Prg max/avg/min : 101325 101325 101324.98
U   max/avg/min : 2.1392881e-05 2.3368179e-06 -2.0350859e-05
Prg max-min : 0.019365723
 
Iteration Number = 39

DILUPBiCG:  Solving for Ux, Initial residual = 0.043326673, Final residual = 6.8142822e-07, No Iterations 2
DILUPBiCG:  Solving for Uy, Initial residual = 0.0338373, Final residual = 3.9392057e-07, No Iterations 2
DILUPBiCG:  Solving for Uz, Initial residual = 0.033147403, Final residual = 1.6139297e-07, No Iterations 2
DILUPBiCG:  Solving for h, Initial residual = 0.019085059, Final residual = 1.7678846e-05, No Iterations 3
GAMG:  Solving for p_rgh, Initial residual = 0.017772035, Final residual = 1.573287e-05, No Iterations 13
time step continuity errors : sum local = 6.2933317e-06, global = -3.7507338e-07, cumulative = 5.2450363e-07
ExecutionTime = 43.37 s  ClockTime = 43 s
Inflow      : 9.8223779e-11 [kg/s]
Outflow     : 5.0032382e-11 [kg/s]
EnergyInflow  : 2.9021414e-05 [W]
EnergyOutflow : 1.4826297e-05 [W]
rho max/avg/min : 1.2016434 1.2009537 1.1996296
T   max/avg/min : 294.15973 293.85233 293.70053
P   max/avg/min : 101324.94 101319.11 101313.27
Prg max/avg/min : 101325 101325 101324.98
U   max/avg/min : 2.3341516e-05 2.4770663e-06 -2.1855944e-05
Prg max-min : 0.019765183
 
Iteration Number = 40

DILUPBiCG:  Solving for Ux, Initial residual = 0.042825718, Final residual = 6.7787506e-07, No Iterations 2
DILUPBiCG:  Solving for Uy, Initial residual = 0.033222076, Final residual = 3.9015315e-07, No Iterations 2
DILUPBiCG:  Solving for Uz, Initial residual = 0.032062818, Final residual = 1.5520778e-07, No Iterations 2
DILUPBiCG:  Solving for h, Initial residual = 0.018725775, Final residual = 1.7599507e-05, No Iterations 3
GAMG:  Solving for p_rgh, Initial residual = 0.017135485, Final residual = 1.6439413e-05, No Iterations 11
time step continuity errors : sum local = 6.8049217e-06, global = -4.3997523e-07, cumulative = 8.45284e-08
ExecutionTime = 44.54 s  ClockTime = 45 s
Inflow      : 1.1010844e-10 [kg/s]
Outflow     : 5.357811e-11 [kg/s]
EnergyInflow  : 3.2532881e-05 [W]
EnergyOutflow : 1.5879459e-05 [W]
rho max/avg/min : 1.2016431 1.200935 1.1995972
T   max/avg/min : 294.16768 293.8569 293.7006
P   max/avg/min : 101324.94 101319.11 101313.27
Prg max/avg/min : 101325 101325 101324.98
U   max/avg/min : 2.5347569e-05 2.6158108e-06 -2.3429544e-05
Prg max-min : 0.020155811
 
Iteration Number = 41

DILUPBiCG:  Solving for Ux, Initial residual = 0.042328755, Final residual = 6.7412103e-07, No Iterations 2
DILUPBiCG:  Solving for Uy, Initial residual = 0.032620518, Final residual = 3.862376e-07, No Iterations 2
DILUPBiCG:  Solving for Uz, Initial residual = 0.031052416, Final residual = 1.512205e-07, No Iterations 2
DILUPBiCG:  Solving for h, Initial residual = 0.018382395, Final residual = 1.7503871e-05, No Iterations 3
GAMG:  Solving for p_rgh, Initial residual = 0.016493843, Final residual = 1.6100051e-05, No Iterations 13
time step continuity errors : sum local = 6.8887893e-06, global = -3.9200275e-07, cumulative = -3.0747435e-07
ExecutionTime = 45.8 s  ClockTime = 46 s
Inflow      : 1.0747187e-10 [kg/s]
Outflow     : 5.7105302e-11 [kg/s]
EnergyInflow  : 3.1753876e-05 [W]
EnergyOutflow : 1.6927842e-05 [W]
rho max/avg/min : 1.2016428 1.2009163 1.199565
T   max/avg/min : 294.17558 293.86149 293.70068
P   max/avg/min : 101324.94 101319.11 101313.27
Prg max/avg/min : 101325 101325 101324.98
U   max/avg/min : 2.7754712e-05 2.7520637e-06 -2.5251955e-05
Prg max-min : 0.020552277
 
Iteration Number = 42

DILUPBiCG:  Solving for Ux, Initial residual = 0.041845603, Final residual = 6.706613e-07, No Iterations 2
DILUPBiCG:  Solving for Uy, Initial residual = 0.032045796, Final residual = 3.8246742e-07, No Iterations 2
DILUPBiCG:  Solving for Uz, Initial residual = 0.030117638, Final residual = 1.5037383e-07, No Iterations 2
DILUPBiCG:  Solving for h, Initial residual = 0.018053213, Final residual = 1.7408026e-05, No Iterations 3
GAMG:  Solving for p_rgh, Initial residual = 0.015946562, Final residual = 1.5260108e-05, No Iterations 13
time step continuity errors : sum local = 6.7391879e-06, global = 4.0981612e-07, cumulative = 1.0234177e-07
ExecutionTime = 47.04 s  ClockTime = 47 s
Inflow      : 7.5007018e-12 [kg/s]
Outflow     : 6.0156027e-11 [kg/s]
EnergyInflow  : 2.2161738e-06 [W]
EnergyOutflow : 1.7835891e-05 [W]
rho max/avg/min : 1.2016425 1.2008975 1.1995329
T   max/avg/min : 294.18345 293.86609 293.70076
P   max/avg/min : 101324.94 101319.11 101313.27
Prg max/avg/min : 101325 101325 101324.98
U   max/avg/min : 3.069104e-05 2.8854082e-06 -2.7030794e-05
Prg max-min : 0.020943019
 
Iteration Number = 43

DILUPBiCG:  Solving for Ux, Initial residual = 0.041369386, Final residual = 6.6694712e-07, No Iterations 2
DILUPBiCG:  Solving for Uy, Initial residual = 0.03148885, Final residual = 3.7861438e-07, No Iterations 2
DILUPBiCG:  Solving for Uz, Initial residual = 0.029236111, Final residual = 1.5018799e-07, No Iterations 2
DILUPBiCG:  Solving for h, Initial residual = 0.017737377, Final residual = 1.7306026e-05, No Iterations 3
GAMG:  Solving for p_rgh, Initial residual = 0.015380545, Final residual = 1.3818188e-05, No Iterations 14
time step continuity errors : sum local = 6.2942785e-06, global = 3.8389565e-07, cumulative = 4.8623742e-07
ExecutionTime = 48.28 s  ClockTime = 48 s
Inflow      : 1.4903174e-11 [kg/s]
Outflow     : 6.4228102e-11 [kg/s]
EnergyInflow  : 4.4033247e-06 [W]
EnergyOutflow : 1.9046424e-05 [W]
rho max/avg/min : 1.2016421 1.2008787 1.199501
T   max/avg/min : 294.19127 293.87071 293.70085
P   max/avg/min : 101324.94 101319.11 101313.27
Prg max/avg/min : 101325 101325 101324.98
U   max/avg/min : 3.3729152e-05 3.0173654e-06 -2.8823162e-05
Prg max-min : 0.021334579
 
Iteration Number = 44

DILUPBiCG:  Solving for Ux, Initial residual = 0.040902944, Final residual = 6.6327904e-07, No Iterations 2
DILUPBiCG:  Solving for Uy, Initial residual = 0.030952092, Final residual = 3.7475944e-07, No Iterations 2
DILUPBiCG:  Solving for Uz, Initial residual = 0.028405929, Final residual = 1.4438196e-07, No Iterations 2
DILUPBiCG:  Solving for h, Initial residual = 0.017434011, Final residual = 1.7203734e-05, No Iterations 3
GAMG:  Solving for p_rgh, Initial residual = 0.014894525, Final residual = 1.4338984e-05, No Iterations 14
time step continuity errors : sum local = 6.7271245e-06, global = -4.060459e-07, cumulative = 8.019151e-08
ExecutionTime = 49.52 s  ClockTime = 50 s
Inflow      : 1.1925715e-10 [kg/s]
Outflow     : 6.708624e-11 [kg/s]
EnergyInflow  : 3.5235979e-05 [W]
EnergyOutflow : 1.9899166e-05 [W]
rho max/avg/min : 1.2016417 1.2008598 1.1994692
T   max/avg/min : 294.19906 293.87533 293.70095
P   max/avg/min : 101324.94 101319.11 101313.27
Prg max/avg/min : 101325 101325 101324.98
U   max/avg/min : 3.6845725e-05 3.1498854e-06 -3.0850285e-05
Prg max-min : 0.021720464
 
Iteration Number = 45

DILUPBiCG:  Solving for Ux, Initial residual = 0.040444366, Final residual = 6.5962171e-07, No Iterations 2
DILUPBiCG:  Solving for Uy, Initial residual = 0.030430424, Final residual = 3.7090096e-07, No Iterations 2
DILUPBiCG:  Solving for Uz, Initial residual = 0.027630575, Final residual = 1.4370486e-07, No Iterations 2
DILUPBiCG:  Solving for h, Initial residual = 0.017142338, Final residual = 1.7093316e-05, No Iterations 3
GAMG:  Solving for p_rgh, Initial residual = 0.014389219, Final residual = 1.4113402e-05, No Iterations 13
time step continuity errors : sum local = 6.8153866e-06, global = 4.2588619e-07, cumulative = 5.060777e-07
ExecutionTime = 50.78 s  ClockTime = 51 s
Inflow      : 1.5019893e-11 [kg/s]
Outflow     : 6.9739986e-11 [kg/s]
EnergyInflow  : 4.4378105e-06 [W]
EnergyOutflow : 2.0691759e-05 [W]
rho max/avg/min : 1.2016413 1.2008409 1.1994376
T   max/avg/min : 294.20682 293.87996 293.70105
P   max/avg/min : 101324.94 101319.11 101313.27
Prg max/avg/min : 101325 101325 101324.98
U   max/avg/min : 4.0108919e-05 3.2780727e-06 -3.3019254e-05
Prg max-min : 0.022111422
 
Iteration Number = 46

DILUPBiCG:  Solving for Ux, Initial residual = 0.039999967, Final residual = 6.5618367e-07, No Iterations 2
DILUPBiCG:  Solving for Uy, Initial residual = 0.029930132, Final residual = 3.6715973e-07, No Iterations 2
DILUPBiCG:  Solving for Uz, Initial residual = 0.026883707, Final residual = 1.4280021e-07, No Iterations 2
DILUPBiCG:  Solving for h, Initial residual = 0.016861814, Final residual = 2.5977284e-06, No Iterations 4
GAMG:  Solving for p_rgh, Initial residual = 0.013715369, Final residual = 1.2592515e-05, No Iterations 14
time step continuity errors : sum local = 6.2527613e-06, global = 3.8545828e-07, cumulative = 8.9153598e-07
ExecutionTime = 52.1 s  ClockTime = 52 s
Inflow      : 2.086169e-11 [kg/s]
Outflow     : 7.0387393e-11 [kg/s]
EnergyInflow  : 6.1638409e-06 [W]
EnergyOutflow : 2.0892284e-05 [W]
rho max/avg/min : 1.2016408 1.2008219 1.1994061
T   max/avg/min : 294.21454 293.8846 293.70116
P   max/avg/min : 101324.94 101319.11 101313.27
Prg max/avg/min : 101325 101325 101324.98
U   max/avg/min : 4.3487902e-05 3.4037683e-06 -3.5307945e-05
Prg max-min : 0.022498614
 
Iteration Number = 47

DILUPBiCG:  Solving for Ux, Initial residual = 0.039560147, Final residual = 6.5246023e-07, No Iterations 2
DILUPBiCG:  Solving for Uy, Initial residual = 0.029442534, Final residual = 3.6336959e-07, No Iterations 2
DILUPBiCG:  Solving for Uz, Initial residual = 0.026188154, Final residual = 1.3606564e-07, No Iterations 2
DILUPBiCG:  Solving for h, Initial residual = 0.016591678, Final residual = 2.5719266e-06, No Iterations 4
GAMG:  Solving for p_rgh, Initial residual = 0.013454117, Final residual = 1.3068443e-05, No Iterations 14
time step continuity errors : sum local = 6.6657039e-06, global = -4.0415899e-07, cumulative = 4.8737699e-07
ExecutionTime = 53.62 s  ClockTime = 54 s
Inflow      : 1.2336574e-10 [kg/s]
Outflow     : 7.143727e-11 [kg/s]
EnergyInflow  : 3.6449913e-05 [W]
EnergyOutflow : 2.121215e-05 [W]
rho max/avg/min : 1.2016404 1.2008029 1.1993748
T   max/avg/min : 294.22223 293.88926 293.70128
P   max/avg/min : 101324.94 101319.11 101313.27
Prg max/avg/min : 101325 101325 101324.98
U   max/avg/min : 4.7122433e-05 3.5305498e-06 -3.7708101e-05
Prg max-min : 0.022881612
 
Iteration Number = 48

DILUPBiCG:  Solving for Ux, Initial residual = 0.039131602, Final residual = 6.4839614e-07, No Iterations 2
DILUPBiCG:  Solving for Uy, Initial residual = 0.028967372, Final residual = 3.594258e-07, No Iterations 2
DILUPBiCG:  Solving for Uz, Initial residual = 0.025534578, Final residual = 1.3299396e-07, No Iterations 2
DILUPBiCG:  Solving for h, Initial residual = 0.016331066, Final residual = 2.545808e-06, No Iterations 4
GAMG:  Solving for p_rgh, Initial residual = 0.013063586, Final residual = 1.2449563e-05, No Iterations 13
time step continuity errors : sum local = 6.5184218e-06, global = 4.0403554e-07, cumulative = 8.9141254e-07
ExecutionTime = 55.22 s  ClockTime = 55 s
Inflow      : 2.2170984e-11 [kg/s]
Outflow     : 7.4083591e-11 [kg/s]
EnergyInflow  : 6.5506877e-06 [W]
EnergyOutflow : 2.2004805e-05 [W]
rho max/avg/min : 1.2016399 1.2007839 1.1993436
T   max/avg/min : 294.22988 293.89392 293.7014
P   max/avg/min : 101324.94 101319.11 101313.27
Prg max/avg/min : 101325 101325 101324.98
U   max/avg/min : 5.0884512e-05 3.65398e-06 -4.0187471e-05
Prg max-min : 0.02326722
 
Iteration Number = 49

DILUPBiCG:  Solving for Ux, Initial residual = 0.038714184, Final residual = 6.444356e-07, No Iterations 2
DILUPBiCG:  Solving for Uy, Initial residual = 0.028513348, Final residual = 3.5575748e-07, No Iterations 2
DILUPBiCG:  Solving for Uz, Initial residual = 0.024897303, Final residual = 1.3361212e-07, No Iterations 2
DILUPBiCG:  Solving for h, Initial residual = 0.016079473, Final residual = 2.5181909e-06, No Iterations 4
GAMG:  Solving for p_rgh, Initial residual = 0.012715469, Final residual = 1.1129792e-05, No Iterations 14
time step continuity errors : sum local = 5.9758503e-06, global = 3.6289661e-07, cumulative = 1.2543091e-06
ExecutionTime = 56.5 s  ClockTime = 57 s
Inflow      : 2.9122813e-11 [kg/s]
Outflow     : 7.5749674e-11 [kg/s]
EnergyInflow  : 8.6046903e-06 [W]
EnergyOutflow : 2.2508224e-05 [W]
rho max/avg/min : 1.2016393 1.2007648 1.1993125
T   max/avg/min : 294.23751 293.89858 293.70153
P   max/avg/min : 101324.94 101319.11 101313.27
Prg max/avg/min : 101325 101325 101324.98
U   max/avg/min : 5.4842465e-05 3.7765971e-06 -4.2666469e-05
Prg max-min : 0.023649166
 
Iteration Number = 50

DILUPBiCG:  Solving for Ux, Initial residual = 0.038300669, Final residual = 6.4035757e-07, No Iterations 2
DILUPBiCG:  Solving for Uy, Initial residual = 0.028069, Final residual = 3.5191702e-07, No Iterations 2
DILUPBiCG:  Solving for Uz, Initial residual = 0.024295644, Final residual = 1.2832438e-07, No Iterations 2
DILUPBiCG:  Solving for h, Initial residual = 0.015836638, Final residual = 2.4903708e-06, No Iterations 4
GAMG:  Solving for p_rgh, Initial residual = 0.012361669, Final residual = 1.1599735e-05, No Iterations 14
time step continuity errors : sum local = 6.3825137e-06, global = -3.9024054e-07, cumulative = 8.6406861e-07
ExecutionTime = 57.76 s  ClockTime = 58 s
Inflow      : 1.285588e-10 [kg/s]
Outflow     : 7.8418651e-11 [kg/s]
EnergyInflow  : 3.7984267e-05 [W]
EnergyOutflow : 2.3309343e-05 [W]
rho max/avg/min : 1.2016388 1.2007457 1.1992815
T   max/avg/min : 294.24511 293.90326 293.70167
P   max/avg/min : 101324.94 101319.11 101313.27
Prg max/avg/min : 101325.01 101325 101324.98
U   max/avg/min : 5.8847925e-05 3.9022612e-06 -4.5209521e-05
Prg max-min : 0.024026128
 
Iteration Number = 51

DILUPBiCG:  Solving for Ux, Initial residual = 0.037895438, Final residual = 6.3633058e-07, No Iterations 2
DILUPBiCG:  Solving for Uy, Initial residual = 0.027639601, Final residual = 3.4823692e-07, No Iterations 2
DILUPBiCG:  Solving for Uz, Initial residual = 0.023727497, Final residual = 1.2694978e-07, No Iterations 2
DILUPBiCG:  Solving for h, Initial residual = 0.015602054, Final residual = 2.4637837e-06, No Iterations 4
GAMG:  Solving for p_rgh, Initial residual = 0.012036238, Final residual = 1.0973049e-05, No Iterations 13
time step continuity errors : sum local = 6.1855877e-06, global = 3.776817e-07, cumulative = 1.2417503e-06
ExecutionTime = 58.96 s  ClockTime = 59 s
Inflow      : 3.3801811e-11 [kg/s]
Outflow     : 8.2328338e-11 [kg/s]
EnergyInflow  : 9.9871574e-06 [W]
EnergyOutflow : 2.4477874e-05 [W]
rho max/avg/min : 1.2016381 1.2007266 1.1992506
T   max/avg/min : 294.25269 293.90794 293.70182
P   max/avg/min : 101324.94 101319.11 101313.27
Prg max/avg/min : 101325.01 101325 101324.98
U   max/avg/min : 6.2953599e-05 4.0268508e-06 -4.7748295e-05
Prg max-min : 0.024408658
 
Iteration Number = 52

DILUPBiCG:  Solving for Ux, Initial residual = 0.03749791, Final residual = 6.3234818e-07, No Iterations 2
DILUPBiCG:  Solving for Uy, Initial residual = 0.027222838, Final residual = 3.4459195e-07, No Iterations 2
DILUPBiCG:  Solving for Uz, Initial residual = 0.023179048, Final residual = 1.2487997e-07, No Iterations 2
DILUPBiCG:  Solving for h, Initial residual = 0.015375204, Final residual = 2.4379373e-06, No Iterations 4
GAMG:  Solving for p_rgh, Initial residual = 0.011714445, Final residual = 1.1501969e-05, No Iterations 13
time step continuity errors : sum local = 6.6349856e-06, global = -3.8020704e-07, cumulative = 8.6154327e-07
ExecutionTime = 60.23 s  ClockTime = 60 s
Inflow      : 1.3748794e-10 [kg/s]
Outflow     : 8.8636947e-11 [kg/s]
EnergyInflow  : 4.062249e-05 [W]
EnergyOutflow : 2.6355784e-05 [W]
rho max/avg/min : 1.2016375 1.2007075 1.1992198
T   max/avg/min : 294.26024 293.91263 293.70197
P   max/avg/min : 101324.94 101319.11 101313.27
Prg max/avg/min : 101325.01 101325 101324.98
U   max/avg/min : 6.7202825e-05 4.1549833e-06 -5.0303587e-05
Prg max-min : 0.024784619
 
Iteration Number = 53

DILUPBiCG:  Solving for Ux, Initial residual = 0.037104651, Final residual = 6.2823578e-07, No Iterations 2
DILUPBiCG:  Solving for Uy, Initial residual = 0.026817826, Final residual = 3.4097171e-07, No Iterations 2
DILUPBiCG:  Solving for Uz, Initial residual = 0.022663297, Final residual = 1.1864509e-07, No Iterations 2
DILUPBiCG:  Solving for h, Initial residual = 0.015155402, Final residual = 2.4107725e-06, No Iterations 4
GAMG:  Solving for p_rgh, Initial residual = 0.011419876, Final residual = 1.0273896e-05, No Iterations 15
time step continuity errors : sum local = 6.0608308e-06, global = -3.5506525e-07, cumulative = 5.0647801e-07
ExecutionTime = 61.54 s  ClockTime = 62 s
Inflow      : 1.3592241e-10 [kg/s]
Outflow     : 9.0301763e-11 [kg/s]
EnergyInflow  : 4.0159934e-05 [W]
EnergyOutflow : 2.6863082e-05 [W]
rho max/avg/min : 1.2016368 1.2006883 1.1991892
T   max/avg/min : 294.26777 293.91732 293.70214
P   max/avg/min : 101324.94 101319.11 101313.27
Prg max/avg/min : 101325.01 101325 101324.98
U   max/avg/min : 7.144089e-05 4.2854512e-06 -5.2909851e-05
Prg max-min : 0.02516525
 
Iteration Number = 54

DILUPBiCG:  Solving for Ux, Initial residual = 0.036720658, Final residual = 6.2376601e-07, No Iterations 2
DILUPBiCG:  Solving for Uy, Initial residual = 0.026423651, Final residual = 3.3729342e-07, No Iterations 2
DILUPBiCG:  Solving for Uz, Initial residual = 0.022156918, Final residual = 1.1586298e-07, No Iterations 2
DILUPBiCG:  Solving for h, Initial residual = 0.01494226, Final residual = 2.3859483e-06, No Iterations 4
GAMG:  Solving for p_rgh, Initial residual = 0.011123775, Final residual = 1.0748675e-05, No Iterations 10
time step continuity errors : sum local = 6.481797e-06, global = -3.2636755e-07, cumulative = 1.8011046e-07
ExecutionTime = 62.62 s  ClockTime = 63 s
Inflow      : 1.3290582e-10 [kg/s]
Outflow     : 9.09724e-11 [kg/s]
EnergyInflow  : 3.9268645e-05 [W]
EnergyOutflow : 2.7076691e-05 [W]
rho max/avg/min : 1.2016361 1.2006691 1.1991586
T   max/avg/min : 294.27528 293.92202 293.70231
P   max/avg/min : 101324.94 101319.11 101313.27
Prg max/avg/min : 101325.01 101325 101324.98
U   max/avg/min : 7.5786176e-05 4.4186706e-06 -5.5628429e-05
Prg max-min : 0.025536982
 
Iteration Number = 55

DILUPBiCG:  Solving for Ux, Initial residual = 0.036340448, Final residual = 6.1960498e-07, No Iterations 2
DILUPBiCG:  Solving for Uy, Initial residual = 0.026039398, Final residual = 3.3367643e-07, No Iterations 2
DILUPBiCG:  Solving for Uz, Initial residual = 0.021674172, Final residual = 1.1163636e-07, No Iterations 2
DILUPBiCG:  Solving for h, Initial residual = 0.014735766, Final residual = 2.360116e-06, No Iterations 4
GAMG:  Solving for p_rgh, Initial residual = 0.010857199, Final residual = 9.8228158e-06, No Iterations 13
time step continuity errors : sum local = 6.0503892e-06, global = -3.5636623e-07, cumulative = -1.7625577e-07
ExecutionTime = 63.86 s  ClockTime = 64 s
Inflow      : 1.3256965e-10 [kg/s]
Outflow     : 8.6781849e-11 [kg/s]
EnergyInflow  : 3.9169322e-05 [W]
EnergyOutflow : 2.5854589e-05 [W]
rho max/avg/min : 1.2016354 1.2006499 1.1991281
T   max/avg/min : 294.28277 293.92672 293.70249
P   max/avg/min : 101324.94 101319.11 101313.27
Prg max/avg/min : 101325.01 101325 101324.98
U   max/avg/min : 8.0204043e-05 4.5548028e-06 -5.8556897e-05
Prg max-min : 0.025916706
 
Iteration Number = 56

DILUPBiCG:  Solving for Ux, Initial residual = 0.035971259, Final residual = 6.1547914e-07, No Iterations 2
DILUPBiCG:  Solving for Uy, Initial residual = 0.025666096, Final residual = 3.3013937e-07, No Iterations 2
DILUPBiCG:  Solving for Uz, Initial residual = 0.021216913, Final residual = 1.0921593e-07, No Iterations 2
DILUPBiCG:  Solving for h, Initial residual = 0.014535752, Final residual = 2.3360848e-06, No Iterations 4
GAMG:  Solving for p_rgh, Initial residual = 0.010589685, Final residual = 9.6684369e-06, No Iterations 13
time step continuity errors : sum local = 6.0833233e-06, global = -3.5561883e-07, cumulative = -5.318746e-07
ExecutionTime = 65.11 s  ClockTime = 65 s
Inflow      : 1.2807867e-10 [kg/s]
Outflow     : 8.2386901e-11 [kg/s]
EnergyInflow  : 3.7842407e-05 [W]
EnergyOutflow : 2.4572681e-05 [W]
rho max/avg/min : 1.2016346 1.2006307 1.1990976
T   max/avg/min : 294.29023 293.93143 293.70268
P   max/avg/min : 101324.94 101319.11 101313.27
Prg max/avg/min : 101325.01 101325 101324.98
U   max/avg/min : 8.4872907e-05 4.6931061e-06 -6.1661111e-05
Prg max-min : 0.026288746
 
Iteration Number = 57

DILUPBiCG:  Solving for Ux, Initial residual = 0.035606055, Final residual = 6.113475e-07, No Iterations 2
DILUPBiCG:  Solving for Uy, Initial residual = 0.025301057, Final residual = 3.2664607e-07, No Iterations 2
DILUPBiCG:  Solving for Uz, Initial residual = 0.02076819, Final residual = 1.0472889e-07, No Iterations 2
DILUPBiCG:  Solving for h, Initial residual = 0.014341557, Final residual = 2.3122629e-06, No Iterations 4
GAMG:  Solving for p_rgh, Initial residual = 0.010332282, Final residual = 9.9734271e-06, No Iterations 7
time step continuity errors : sum local = 6.4027528e-06, global = -3.9131295e-07, cumulative = -9.2318755e-07
ExecutionTime = 66.18 s  ClockTime = 66 s
Inflow      : 1.3202207e-10 [kg/s]
Outflow     : 8.1744127e-11 [kg/s]
EnergyInflow  : 3.9007531e-05 [W]
EnergyOutflow : 2.4401057e-05 [W]
rho max/avg/min : 1.2016338 1.2006114 1.1990673
T   max/avg/min : 294.29768 293.93615 293.70288
P   max/avg/min : 101324.94 101319.11 101313.27
Prg max/avg/min : 101325.01 101325 101324.98
U   max/avg/min : 8.9760451e-05 4.8344825e-06 -6.4915652e-05
Prg max-min : 0.026661474
 
Iteration Number = 58

DILUPBiCG:  Solving for Ux, Initial residual = 0.035248781, Final residual = 6.0722755e-07, No Iterations 2
DILUPBiCG:  Solving for Uy, Initial residual = 0.024946061, Final residual = 3.23192e-07, No Iterations 2
DILUPBiCG:  Solving for Uz, Initial residual = 0.0203409, Final residual = 1.0267095e-07, No Iterations 2
DILUPBiCG:  Solving for h, Initial residual = 0.014152647, Final residual = 2.2869202e-06, No Iterations 4
GAMG:  Solving for p_rgh, Initial residual = 0.010085198, Final residual = 9.329038e-06, No Iterations 13
time step continuity errors : sum local = 6.1086566e-06, global = -3.5340374e-07, cumulative = -1.2765913e-06
ExecutionTime = 67.45 s  ClockTime = 68 s
Inflow      : 1.2643046e-10 [kg/s]
Outflow     : 8.1023296e-11 [kg/s]
EnergyInflow  : 3.7355423e-05 [W]
EnergyOutflow : 2.4207718e-05 [W]
rho max/avg/min : 1.201633 1.2005922 1.199037
T   max/avg/min : 294.30511 293.94087 293.70308
P   max/avg/min : 101324.94 101319.11 101313.27
Prg max/avg/min : 101325.01 101325 101324.98
U   max/avg/min : 9.4877239e-05 4.9784335e-06 -6.8215888e-05
Prg max-min : 0.027035169
 
Iteration Number = 59

DILUPBiCG:  Solving for Ux, Initial residual = 0.034899705, Final residual = 6.0311536e-07, No Iterations 2
DILUPBiCG:  Solving for Uy, Initial residual = 0.024600703, Final residual = 3.1980549e-07, No Iterations 2
DILUPBiCG:  Solving for Uz, Initial residual = 0.019927275, Final residual = 9.928381e-08, No Iterations 2
DILUPBiCG:  Solving for h, Initial residual = 0.013968952, Final residual = 2.2629561e-06, No Iterations 4
GAMG:  Solving for p_rgh, Initial residual = 0.0098685568, Final residual = 8.6928061e-06, No Iterations 11
time step continuity errors : sum local = 5.8056263e-06, global = 3.8876896e-07, cumulative = -8.8782233e-07
ExecutionTime = 68.68 s  ClockTime = 69 s
Inflow      : 3.118302e-11 [kg/s]
Outflow     : 8.1134096e-11 [kg/s]
EnergyInflow  : 9.2134036e-06 [W]
EnergyOutflow : 2.4260223e-05 [W]
rho max/avg/min : 1.2016321 1.2005729 1.1990069
T   max/avg/min : 294.31252 293.94559 293.7033
P   max/avg/min : 101324.94 101319.11 101313.27
Prg max/avg/min : 101325.01 101325 101324.98
U   max/avg/min : 0.00010004778 5.1244586e-06 -7.1543645e-05
Prg max-min : 0.027404256
 
Iteration Number = 60

DILUPBiCG:  Solving for Ux, Initial residual = 0.034554989, Final residual = 5.9897104e-07, No Iterations 2
DILUPBiCG:  Solving for Uy, Initial residual = 0.024264898, Final residual = 3.1648122e-07, No Iterations 2
DILUPBiCG:  Solving for Uz, Initial residual = 0.019528189, Final residual = 9.7133305e-08, No Iterations 2
DILUPBiCG:  Solving for h, Initial residual = 0.013790682, Final residual = 2.2380011e-06, No Iterations 4
GAMG:  Solving for p_rgh, Initial residual = 0.0096445086, Final residual = 9.5292895e-06, No Iterations 13
time step continuity errors : sum local = 6.4859e-06, global = -3.7805573e-07, cumulative = -1.2658781e-06
ExecutionTime = 69.89 s  ClockTime = 70 s
Inflow      : 1.288136e-10 [kg/s]
Outflow     : 8.0239015e-11 [kg/s]
EnergyInflow  : 3.8059549e-05 [W]
EnergyOutflow : 2.4017149e-05 [W]
rho max/avg/min : 1.2016312 1.2005536 1.1989767
T   max/avg/min : 294.31991 293.95032 293.70352
P   max/avg/min : 101324.94 101319.11 101313.28
Prg max/avg/min : 101325.01 101325 101324.98
U   max/avg/min : 0.00010538734 5.2759608e-06 -7.4859191e-05
Prg max-min : 0.027770563
 
Iteration Number = 61

DILUPBiCG:  Solving for Ux, Initial residual = 0.034215093, Final residual = 5.9467028e-07, No Iterations 2
DILUPBiCG:  Solving for Uy, Initial residual = 0.023936226, Final residual = 3.1313189e-07, No Iterations 2
DILUPBiCG:  Solving for Uz, Initial residual = 0.019142094, Final residual = 9.612847e-08, No Iterations 2
DILUPBiCG:  Solving for h, Initial residual = 0.01361723, Final residual = 2.2119298e-06, No Iterations 4
GAMG:  Solving for p_rgh, Initial residual = 0.0094298511, Final residual = 8.8736101e-06, No Iterations 15
time step continuity errors : sum local = 6.1540332e-06, global = -3.6400697e-07, cumulative = -1.629885e-06
ExecutionTime = 71.22 s  ClockTime = 71 s
Inflow      : 1.2555497e-10 [kg/s]
Outflow     : 7.8785448e-11 [kg/s]
EnergyInflow  : 3.7096749e-05 [W]
EnergyOutflow : 2.3611025e-05 [W]
rho max/avg/min : 1.2016302 1.2005343 1.1989467
T   max/avg/min : 294.32728 293.95505 293.70375
P   max/avg/min : 101324.94 101319.11 101313.28
Prg max/avg/min : 101325.01 101325 101324.98
U   max/avg/min : 0.00011067957 5.4301044e-06 -7.8332114e-05
Prg max-min : 0.028137979
 
Iteration Number = 62

DILUPBiCG:  Solving for Ux, Initial residual = 0.033883418, Final residual = 5.9080382e-07, No Iterations 2
DILUPBiCG:  Solving for Uy, Initial residual = 0.023618429, Final residual = 3.0990343e-07, No Iterations 2
DILUPBiCG:  Solving for Uz, Initial residual = 0.018766198, Final residual = 9.4058776e-08, No Iterations 2
DILUPBiCG:  Solving for h, Initial residual = 0.013448121, Final residual = 2.1892564e-06, No Iterations 4
GAMG:  Solving for p_rgh, Initial residual = 0.0092389676, Final residual = 8.6058676e-06, No Iterations 12
time step continuity errors : sum local = 6.0766027e-06, global = -3.5796395e-07, cumulative = -1.987849e-06
ExecutionTime = 72.39 s  ClockTime = 72 s
Inflow      : 1.2782197e-10 [kg/s]
Outflow     : 8.1828886e-11 [kg/s]
EnergyInflow  : 3.7766561e-05 [W]
EnergyOutflow : 2.4534197e-05 [W]
rho max/avg/min : 1.2016292 1.200515 1.1989167
T   max/avg/min : 294.33464 293.95978 293.704
P   max/avg/min : 101324.94 101319.11 101313.28
Prg max/avg/min : 101325.01 101325 101324.98
U   max/avg/min : 0.00011601894 5.5879711e-06 -8.1812408e-05
Prg max-min : 0.02850166
 
Iteration Number = 63

DILUPBiCG:  Solving for Ux, Initial residual = 0.033555841, Final residual = 5.8668195e-07, No Iterations 2
DILUPBiCG:  Solving for Uy, Initial residual = 0.023307413, Final residual = 3.0626203e-07, No Iterations 2
DILUPBiCG:  Solving for Uz, Initial residual = 0.018406674, Final residual = 9.0478623e-08, No Iterations 2
DILUPBiCG:  Solving for h, Initial residual = 0.013283283, Final residual = 2.166163e-06, No Iterations 4
GAMG:  Solving for p_rgh, Initial residual = 0.0090415885, Final residual = 8.1956973e-06, No Iterations 13
time step continuity errors : sum local = 5.8916713e-06, global = -3.5131284e-07, cumulative = -2.3391618e-06
ExecutionTime = 73.6 s  ClockTime = 74 s
Inflow      : 1.3031841e-10 [kg/s]
Outflow     : 8.5179891e-11 [kg/s]
EnergyInflow  : 3.8504164e-05 [W]
EnergyOutflow : 2.5550079e-05 [W]
rho max/avg/min : 1.2016282 1.2004956 1.1988868
T   max/avg/min : 294.34199 293.96452 293.70425
P   max/avg/min : 101324.94 101319.11 101313.28
Prg max/avg/min : 101325.01 101325 101324.98
U   max/avg/min : 0.0001214666 5.7500521e-06 -8.5316114e-05
Prg max-min : 0.028869004
 
Iteration Number = 64

DILUPBiCG:  Solving for Ux, Initial residual = 0.033234354, Final residual = 5.8313897e-07, No Iterations 2
DILUPBiCG:  Solving for Uy, Initial residual = 0.023005188, Final residual = 3.0319609e-07, No Iterations 2
DILUPBiCG:  Solving for Uz, Initial residual = 0.018057377, Final residual = 8.9174315e-08, No Iterations 2
DILUPBiCG:  Solving for h, Initial residual = 0.013122962, Final residual = 2.1433406e-06, No Iterations 4
GAMG:  Solving for p_rgh, Initial residual = 0.0088501772, Final residual = 8.0383941e-06, No Iterations 13
time step continuity errors : sum local = 5.8785646e-06, global = 3.3936831e-07, cumulative = -1.9997935e-06
ExecutionTime = 74.8 s  ClockTime = 75 s
Inflow      : 4.4054284e-11 [kg/s]
Outflow     : 8.7658105e-11 [kg/s]
EnergyInflow  : 1.3016376e-05 [W]
EnergyOutflow : 2.6308427e-05 [W]
rho max/avg/min : 1.2016271 1.2004763 1.1988569
T   max/avg/min : 294.34932 293.96926 293.70451
P   max/avg/min : 101324.94 101319.11 101313.28
Prg max/avg/min : 101325.01 101325 101324.98
U   max/avg/min : 0.00012711196 5.9154291e-06 -8.887661e-05
Prg max-min : 0.029233581
 
Iteration Number = 65

DILUPBiCG:  Solving for Ux, Initial residual = 0.032916952, Final residual = 5.7970873e-07, No Iterations 2
DILUPBiCG:  Solving for Uy, Initial residual = 0.022709213, Final residual = 3.0021797e-07, No Iterations 2
DILUPBiCG:  Solving for Uz, Initial residual = 0.017721673, Final residual = 8.7882728e-08, No Iterations 2
DILUPBiCG:  Solving for h, Initial residual = 0.012966579, Final residual = 2.1208451e-06, No Iterations 4
GAMG:  Solving for p_rgh, Initial residual = 0.0086698512, Final residual = 8.3613781e-06, No Iterations 13
time step continuity errors : sum local = 6.2185191e-06, global = -3.5285162e-07, cumulative = -2.3526451e-06
ExecutionTime = 76.02 s  ClockTime = 76 s
Inflow      : 1.3213789e-10 [kg/s]
Outflow     : 8.6801667e-11 [kg/s]
EnergyInflow  : 3.9041753e-05 [W]
EnergyOutflow : 2.6082565e-05 [W]
rho max/avg/min : 1.201626 1.2004569 1.1988271
T   max/avg/min : 294.35664 293.974 293.70478
P   max/avg/min : 101324.94 101319.11 101313.28
Prg max/avg/min : 101325.01 101325 101324.98
U   max/avg/min : 0.00013285699 6.0854251e-06 -9.2542297e-05
Prg max-min : 0.029596716
 
Iteration Number = 66

DILUPBiCG:  Solving for Ux, Initial residual = 0.032604421, Final residual = 5.7616307e-07, No Iterations 2
DILUPBiCG:  Solving for Uy, Initial residual = 0.022421755, Final residual = 2.9730712e-07, No Iterations 2
DILUPBiCG:  Solving for Uz, Initial residual = 0.017395101, Final residual = 8.5875873e-08, No Iterations 2
DILUPBiCG:  Solving for h, Initial residual = 0.012813706, Final residual = 2.0984249e-06, No Iterations 4
GAMG:  Solving for p_rgh, Initial residual = 0.0084981817, Final residual = 8.2345297e-06, No Iterations 14
time step continuity errors : sum local = 6.2262458e-06, global = 3.842631e-07, cumulative = -1.968382e-06
ExecutionTime = 77.26 s  ClockTime = 77 s
Inflow      : 3.5951377e-11 [kg/s]
Outflow     : 8.5323516e-11 [kg/s]
EnergyInflow  : 1.0622273e-05 [W]
EnergyOutflow : 2.5674229e-05 [W]
rho max/avg/min : 1.2016249 1.2004376 1.1987974
T   max/avg/min : 294.36394 293.97875 293.70506
P   max/avg/min : 101324.94 101319.11 101313.28
Prg max/avg/min : 101325.01 101325 101324.98
U   max/avg/min : 0.00013874675 6.2558558e-06 -9.6297871e-05
Prg max-min : 0.029959682
 
Iteration Number = 67

DILUPBiCG:  Solving for Ux, Initial residual = 0.032297219, Final residual = 5.7276424e-07, No Iterations 2
DILUPBiCG:  Solving for Uy, Initial residual = 0.022139562, Final residual = 2.9443959e-07, No Iterations 2
DILUPBiCG:  Solving for Uz, Initial residual = 0.017080903, Final residual = 8.1088604e-08, No Iterations 2
DILUPBiCG:  Solving for h, Initial residual = 0.012664579, Final residual = 2.0768865e-06, No Iterations 4
GAMG:  Solving for p_rgh, Initial residual = 0.008341004, Final residual = 7.2907646e-06, No Iterations 14
time step continuity errors : sum local = 5.6013364e-06, global = 3.3352102e-07, cumulative = -1.634861e-06
ExecutionTime = 78.52 s  ClockTime = 79 s
Inflow      : 4.0744523e-11 [kg/s]
Outflow     : 8.3597054e-11 [kg/s]
EnergyInflow  : 1.2038467e-05 [W]
EnergyOutflow : 2.5193132e-05 [W]
rho max/avg/min : 1.2016237 1.2004182 1.1987677
T   max/avg/min : 294.37123 293.9835 293.70534
P   max/avg/min : 101324.94 101319.11 101313.28
Prg max/avg/min : 101325.01 101325 101324.98
U   max/avg/min : 0.00014471309 6.4285965e-06 -0.00010015644
Prg max-min : 0.03032188
 
Iteration Number = 68

DILUPBiCG:  Solving for Ux, Initial residual = 0.031994452, Final residual = 5.6944261e-07, No Iterations 2
DILUPBiCG:  Solving for Uy, Initial residual = 0.021864353, Final residual = 2.916298e-07, No Iterations 2
DILUPBiCG:  Solving for Uz, Initial residual = 0.016778633, Final residual = 7.9808616e-08, No Iterations 2
DILUPBiCG:  Solving for h, Initial residual = 0.012519017, Final residual = 2.0560655e-06, No Iterations 4
GAMG:  Solving for p_rgh, Initial residual = 0.0081883462, Final residual = 7.4671138e-06, No Iterations 14
time step continuity errors : sum local = 5.8286385e-06, global = -3.5573327e-07, cumulative = -1.9905943e-06
ExecutionTime = 79.77 s  ClockTime = 80 s
Inflow      : 1.2563964e-10 [kg/s]
Outflow     : 7.9933165e-11 [kg/s]
EnergyInflow  : 3.7121765e-05 [W]
EnergyOutflow : 2.4140425e-05 [W]
rho max/avg/min : 1.2016225 1.2003988 1.1987381
T   max/avg/min : 294.37851 293.98825 293.70564
P   max/avg/min : 101324.94 101319.11 101313.28
Prg max/avg/min : 101325.01 101325 101324.98
U   max/avg/min : 0.00015083882 6.6048442e-06 -0.00010409056
Prg max-min : 0.030679414
 
Iteration Number = 69

DILUPBiCG:  Solving for Ux, Initial residual = 0.031694057, Final residual = 5.6608788e-07, No Iterations 2
DILUPBiCG:  Solving for Uy, Initial residual = 0.021595, Final residual = 2.888983e-07, No Iterations 2
DILUPBiCG:  Solving for Uz, Initial residual = 0.016481104, Final residual = 7.973956e-08, No Iterations 2
DILUPBiCG:  Solving for h, Initial residual = 0.012376484, Final residual = 2.0334054e-06, No Iterations 4
GAMG:  Solving for p_rgh, Initial residual = 0.0080206656, Final residual = 7.9369133e-06, No Iterations 15
time step continuity errors : sum local = 6.2908717e-06, global = -3.5349554e-07, cumulative = -2.3440898e-06
ExecutionTime = 81.05 s  ClockTime = 81 s
Inflow      : 1.2080422e-10 [kg/s]
Outflow     : 7.5385261e-11 [kg/s]
EnergyInflow  : 3.5693082e-05 [W]
EnergyOutflow : 2.2829388e-05 [W]
rho max/avg/min : 1.2016213 1.2003794 1.1987085
T   max/avg/min : 294.38577 293.993 293.70595
P   max/avg/min : 101324.94 101319.11 101313.28
Prg max/avg/min : 101325.01 101325 101324.98
U   max/avg/min : 0.00015699693 6.7792139e-06 -0.0001081644
Prg max-min : 0.031037055
 
Iteration Number = 70

DILUPBiCG:  Solving for Ux, Initial residual = 0.031398002, Final residual = 5.6280379e-07, No Iterations 2
DILUPBiCG:  Solving for Uy, Initial residual = 0.021334536, Final residual = 2.8622209e-07, No Iterations 2
DILUPBiCG:  Solving for Uz, Initial residual = 0.016188925, Final residual = 7.9166805e-08, No Iterations 2
DILUPBiCG:  Solving for h, Initial residual = 0.012237169, Final residual = 2.0119402e-06, No Iterations 4
GAMG:  Solving for p_rgh, Initial residual = 0.0078666144, Final residual = 7.1744182e-06, No Iterations 8
[...]
GAMG:  Solving for p_rgh, Initial residual = 0.0031434137, Final residual = 2.9616384e-06, No Iterations 7
time step continuity errors : sum local = 1.4240577e-05, global = -7.6043615e-07, cumulative = -3.9705931e-05
ExecutionTime = 2679.02 s  ClockTime = 2682 s
Inflow      : 2.1172408e-07 [kg/s]
Outflow     : 2.1162637e-07 [kg/s]
EnergyInflow  : 0.062556462 [W]
EnergyOutflow : 0.072683927 [W]
rho max/avg/min : 1.1921783 1.1614197 1.1465804
T   max/avg/min : 307.79852 303.87425 295.99929
P   max/avg/min : 101324.94 101319.28 101313.61
Prg max/avg/min : 101325.27 101324.98 101324.81
U   max/avg/min : 0.044738142 0.0018418113 -0.035922109
Prg max-min : 0.46048015
 
Iteration Number = 2186

DILUPBiCG:  Solving for Ux, Initial residual = 0.0067189179, Final residual = 2.1564165e-07, No Iterations 2
DILUPBiCG:  Solving for Uy, Initial residual = 0.0043482848, Final residual = 8.5155871e-08, No Iterations 2
DILUPBiCG:  Solving for Uz, Initial residual = 0.00015159388, Final residual = 2.2451497e-07, No Iterations 1
DILUPBiCG:  Solving for h, Initial residual = 0.001035756, Final residual = 2.7884076e-07, No Iterations 4
GAMG:  Solving for p_rgh, Initial residual = 0.0030985669, Final residual = 2.5694417e-06, No Iterations 8
time step continuity errors : sum local = 1.2348243e-05, global = -1.4116936e-06, cumulative = -4.1117625e-05
ExecutionTime = 2680.16 s  ClockTime = 2683 s
Inflow      : 2.119677e-07 [kg/s]
Outflow     : 2.1178632e-07 [kg/s]
EnergyInflow  : 0.062628444 [W]
EnergyOutflow : 0.072740066 [W]
rho max/avg/min : 1.192179 1.1614025 1.1465586
T   max/avg/min : 307.80435 303.87876 295.99911
P   max/avg/min : 101324.94 101319.28 101313.61
Prg max/avg/min : 101325.27 101324.98 101324.81
U   max/avg/min : 0.044761948 0.0018433817 -0.035940134
Prg max-min : 0.46068253
 
Iteration Number = 2187

DILUPBiCG:  Solving for Ux, Initial residual = 0.0067203512, Final residual = 2.1630064e-07, No Iterations 2
DILUPBiCG:  Solving for Uy, Initial residual = 0.0043477733, Final residual = 8.5302777e-08, No Iterations 2
DILUPBiCG:  Solving for Uz, Initial residual = 0.00014995743, Final residual = 2.4064654e-07, No Iterations 1
DILUPBiCG:  Solving for h, Initial residual = 0.0010354669, Final residual = 4.8640846e-07, No Iterations 4
GAMG:  Solving for p_rgh, Initial residual = 0.0031912473, Final residual = 2.809808e-06, No Iterations 7
time step continuity errors : sum local = 1.3527503e-05, global = 8.0567905e-07, cumulative = -4.0311946e-05
ExecutionTime = 2681.36 s  ClockTime = 2684 s
Inflow      : 2.1202939e-07 [kg/s]
Outflow     : 2.1213291e-07 [kg/s]
EnergyInflow  : 0.062646671 [W]
EnergyOutflow : 0.072852091 [W]
rho max/avg/min : 1.1921797 1.1613853 1.1465369
T   max/avg/min : 307.81018 303.88327 295.99894
P   max/avg/min : 101324.94 101319.28 101313.61
Prg max/avg/min : 101325.27 101324.98 101324.81
U   max/avg/min : 0.044786555 0.0018449392 -0.03596083
Prg max-min : 0.46103706
 
Iteration Number = 2188

DILUPBiCG:  Solving for Ux, Initial residual = 0.0067201437, Final residual = 2.1442546e-07, No Iterations 2
DILUPBiCG:  Solving for Uy, Initial residual = 0.0043489849, Final residual = 8.4920503e-08, No Iterations 2
DILUPBiCG:  Solving for Uz, Initial residual = 0.00015130093, Final residual = 2.0996082e-07, No Iterations 1
DILUPBiCG:  Solving for h, Initial residual = 0.0010351625, Final residual = 2.6031224e-07, No Iterations 4
GAMG:  Solving for p_rgh, Initial residual = 0.0032102408, Final residual = 2.5336991e-06, No Iterations 7
time step continuity errors : sum local = 1.2186356e-05, global = -9.6945224e-07, cumulative = -4.1281398e-05
ExecutionTime = 2682.39 s  ClockTime = 2686 s
Inflow      : 2.1247829e-07 [kg/s]
Outflow     : 2.1235373e-07 [kg/s]
EnergyInflow  : 0.062779304 [W]
EnergyOutflow : 0.072926078 [W]
rho max/avg/min : 1.1921804 1.1613682 1.1465152
T   max/avg/min : 307.81602 303.88777 295.99876
P   max/avg/min : 101324.94 101319.28 101313.61
Prg max/avg/min : 101325.27 101324.98 101324.81
U   max/avg/min : 0.044810801 0.0018464986 -0.035979003
Prg max-min : 0.46112514
 
Iteration Number = 2189

DILUPBiCG:  Solving for Ux, Initial residual = 0.0067212493, Final residual = 2.1622179e-07, No Iterations 2
DILUPBiCG:  Solving for Uy, Initial residual = 0.0043489211, Final residual = 8.5495269e-08, No Iterations 2
DILUPBiCG:  Solving for Uz, Initial residual = 0.00015001562, Final residual = 2.4214267e-07, No Iterations 1
DILUPBiCG:  Solving for h, Initial residual = 0.0010348483, Final residual = 4.8886208e-07, No Iterations 4
GAMG:  Solving for p_rgh, Initial residual = 0.0031977056, Final residual = 3.1256802e-06, No Iterations 7
time step continuity errors : sum local = 1.5039293e-05, global = 1.3497311e-06, cumulative = -3.9931667e-05
ExecutionTime = 2683.42 s  ClockTime = 2687 s
Inflow      : 2.1252242e-07 [kg/s]
Outflow     : 2.1269584e-07 [kg/s]
EnergyInflow  : 0.062792342 [W]
EnergyOutflow : 0.073037148 [W]
rho max/avg/min : 1.1921811 1.161351 1.1464935
T   max/avg/min : 307.82185 303.89228 295.99859
P   max/avg/min : 101324.94 101319.28 101313.61
Prg max/avg/min : 101325.27 101324.98 101324.81
U   max/avg/min : 0.044836145 0.0018480515 -0.035999661
Prg max-min : 0.46147807
 
Iteration Number = 2190

DILUPBiCG:  Solving for Ux, Initial residual = 0.0067200697, Final residual = 2.1600782e-07, No Iterations 2
DILUPBiCG:  Solving for Uy, Initial residual = 0.0043495905, Final residual = 8.5091413e-08, No Iterations 2
DILUPBiCG:  Solving for Uz, Initial residual = 0.00015086674, Final residual = 2.6729467e-07, No Iterations 1
DILUPBiCG:  Solving for h, Initial residual = 0.0010345501, Final residual = 2.3072071e-07, No Iterations 4
GAMG:  Solving for p_rgh, Initial residual = 0.0031750212, Final residual = 2.7364226e-06, No Iterations 7
time step continuity errors : sum local = 1.315889e-05, global = -1.0990273e-06, cumulative = -4.1030694e-05
ExecutionTime = 2684.46 s  ClockTime = 2688 s
Inflow      : 2.1300546e-07 [kg/s]
Outflow     : 2.1286425e-07 [kg/s]
EnergyInflow  : 0.062935061 [W]
EnergyOutflow : 0.073096554 [W]
rho max/avg/min : 1.1921818 1.1613338 1.1464717
T   max/avg/min : 307.82768 303.89679 295.99842
P   max/avg/min : 101324.94 101319.28 101313.61
Prg max/avg/min : 101325.27 101324.98 101324.81
U   max/avg/min : 0.044860853 0.0018496009 -0.036018281
Prg max-min : 0.46161487
 
Iteration Number = 2191

DILUPBiCG:  Solving for Ux, Initial residual = 0.0067207503, Final residual = 2.1577519e-07, No Iterations 2
DILUPBiCG:  Solving for Uy, Initial residual = 0.0043479582, Final residual = 8.5308085e-08, No Iterations 2
DILUPBiCG:  Solving for Uz, Initial residual = 0.0001495946, Final residual = 2.6014182e-07, No Iterations 1
DILUPBiCG:  Solving for h, Initial residual = 0.0010341697, Final residual = 4.940259e-07, No Iterations 4
GAMG:  Solving for p_rgh, Initial residual = 0.0032196653, Final residual = 3.0497326e-06, No Iterations 7
time step continuity errors : sum local = 1.4675492e-05, global = 8.9816355e-07, cumulative = -4.0132531e-05
ExecutionTime = 2685.49 s  ClockTime = 2689 s
Inflow      : 2.1310892e-07 [kg/s]
Outflow     : 2.1322432e-07 [kg/s]
EnergyInflow  : 0.062965631 [W]
EnergyOutflow : 0.073212477 [W]
rho max/avg/min : 1.1921825 1.1613166 1.14645
T   max/avg/min : 307.83352 303.9013 295.99825
P   max/avg/min : 101324.94 101319.28 101313.61
Prg max/avg/min : 101325.27 101324.98 101324.81
U   max/avg/min : 0.044885664 0.0018511408 -0.036038769
Prg max-min : 0.46182963
 
Iteration Number = 2192

DILUPBiCG:  Solving for Ux, Initial residual = 0.0067201376, Final residual = 2.1589163e-07, No Iterations 2
DILUPBiCG:  Solving for Uy, Initial residual = 0.0043496885, Final residual = 8.5214615e-08, No Iterations 2
DILUPBiCG:  Solving for Uz, Initial residual = 0.00015025764, Final residual = 2.2197038e-07, No Iterations 1
DILUPBiCG:  Solving for h, Initial residual = 0.0010338653, Final residual = 2.5189993e-07, No Iterations 4
GAMG:  Solving for p_rgh, Initial residual = 0.003174759, Final residual = 2.6081498e-06, No Iterations 7
time step continuity errors : sum local = 1.254389e-05, global = -1.0004006e-06, cumulative = -4.1132931e-05
ExecutionTime = 2686.5 s  ClockTime = 2690 s
Inflow      : 2.135223e-07 [kg/s]
Outflow     : 2.1339377e-07 [kg/s]
EnergyInflow  : 0.06308777 [W]
EnergyOutflow : 0.073271483 [W]
rho max/avg/min : 1.1921832 1.1612994 1.1464283
T   max/avg/min : 307.83935 303.9058 295.99808
P   max/avg/min : 101324.94 101319.28 101313.61
Prg max/avg/min : 101325.27 101324.98 101324.81
U   max/avg/min : 0.044909604 0.0018526718 -0.036057107
Prg max-min : 0.46197077
 
Iteration Number = 2193

DILUPBiCG:  Solving for Ux, Initial residual = 0.0067200006, Final residual = 2.1586295e-07, No Iterations 2
DILUPBiCG:  Solving for Uy, Initial residual = 0.0043483522, Final residual = 8.5230906e-08, No Iterations 2
DILUPBiCG:  Solving for Uz, Initial residual = 0.00014884072, Final residual = 2.4807633e-07, No Iterations 1
DILUPBiCG:  Solving for h, Initial residual = 0.0010335664, Final residual = 4.8939304e-07, No Iterations 4
GAMG:  Solving for p_rgh, Initial residual = 0.0032563401, Final residual = 3.0413201e-06, No Iterations 7
time step continuity errors : sum local = 1.4647446e-05, global = 1.2248384e-06, cumulative = -3.9908093e-05
ExecutionTime = 2687.51 s  ClockTime = 2691 s
Inflow      : 2.1358875e-07 [kg/s]
Outflow     : 2.1374612e-07 [kg/s]
EnergyInflow  : 0.063107401 [W]
EnergyOutflow : 0.073385327 [W]
rho max/avg/min : 1.1921839 1.1612823 1.1464066
T   max/avg/min : 307.84518 303.91031 295.99791
P   max/avg/min : 101324.94 101319.28 101313.61
Prg max/avg/min : 101325.28 101324.98 101324.81
U   max/avg/min : 0.044933988 0.0018541913 -0.036077632
Prg max-min : 0.46222557
 
Iteration Number = 2194

DILUPBiCG:  Solving for Ux, Initial residual = 0.0067207085, Final residual = 2.145647e-07, No Iterations 2
DILUPBiCG:  Solving for Uy, Initial residual = 0.0043499143, Final residual = 8.4981578e-08, No Iterations 2
DILUPBiCG:  Solving for Uz, Initial residual = 0.0001497919, Final residual = 2.0797272e-07, No Iterations 1
DILUPBiCG:  Solving for h, Initial residual = 0.0010332636, Final residual = 2.5783855e-07, No Iterations 4
GAMG:  Solving for p_rgh, Initial residual = 0.0032499176, Final residual = 3.1903113e-06, No Iterations 6
time step continuity errors : sum local = 1.5355212e-05, global = 2.3517724e-06, cumulative = -3.755632e-05
ExecutionTime = 2688.42 s  ClockTime = 2692 s
Inflow      : 2.1364294e-07 [kg/s]
Outflow     : 2.1394511e-07 [kg/s]
EnergyInflow  : 0.063123413 [W]
EnergyOutflow : 0.073452912 [W]
rho max/avg/min : 1.1921846 1.1612651 1.1463849
T   max/avg/min : 307.85101 303.91482 295.99774
P   max/avg/min : 101324.94 101319.28 101313.61
Prg max/avg/min : 101325.27 101324.98 101324.81
U   max/avg/min : 0.044958483 0.0018557073 -0.036095995
Prg max-min : 0.46243979
 
Iteration Number = 2195

DILUPBiCG:  Solving for Ux, Initial residual = 0.0067214647, Final residual = 2.1618388e-07, No Iterations 2
DILUPBiCG:  Solving for Uy, Initial residual = 0.0043492067, Final residual = 8.5484837e-08, No Iterations 2
DILUPBiCG:  Solving for Uz, Initial residual = 0.0001485969, Final residual = 2.3963728e-07, No Iterations 1
DILUPBiCG:  Solving for h, Initial residual = 0.001032956, Final residual = 4.9057332e-07, No Iterations 4
GAMG:  Solving for p_rgh, Initial residual = 0.0031876744, Final residual = 2.7337345e-06, No Iterations 8
time step continuity errors : sum local = 1.3161983e-05, global = 1.6377868e-06, cumulative = -3.5918534e-05
ExecutionTime = 2689.59 s  ClockTime = 2693 s
Inflow      : 2.141169e-07 [kg/s]
Outflow     : 2.1432733e-07 [kg/s]
EnergyInflow  : 0.063263451 [W]
EnergyOutflow : 0.073576014 [W]
rho max/avg/min : 1.1921852 1.1612479 1.1463632
T   max/avg/min : 307.85684 303.91933 295.99758
P   max/avg/min : 101324.94 101319.28 101313.61
Prg max/avg/min : 101325.28 101324.98 101324.81
U   max/avg/min : 0.044984027 0.0018572265 -0.036116623
Prg max-min : 0.46275156
 
Iteration Number = 2196

DILUPBiCG:  Solving for Ux, Initial residual = 0.0067202602, Final residual = 2.1581071e-07, No Iterations 2
DILUPBiCG:  Solving for Uy, Initial residual = 0.0043505673, Final residual = 8.5198472e-08, No Iterations 2
DILUPBiCG:  Solving for Uz, Initial residual = 0.00014985094, Final residual = 2.6012808e-07, No Iterations 1
DILUPBiCG:  Solving for h, Initial residual = 0.0010326518, Final residual = 2.3025185e-07, No Iterations 4
GAMG:  Solving for p_rgh, Initial residual = 0.0032277409, Final residual = 3.1023881e-06, No Iterations 6
time step continuity errors : sum local = 1.4926904e-05, global = -3.8667783e-06, cumulative = -3.9785312e-05
ExecutionTime = 2690.7 s  ClockTime = 2694 s
Inflow      : 2.1498279e-07 [kg/s]
Outflow     : 2.1448597e-07 [kg/s]
EnergyInflow  : 0.063519288 [W]
EnergyOutflow : 0.073632568 [W]
rho max/avg/min : 1.1921859 1.1612307 1.1463415
T   max/avg/min : 307.86267 303.92383 295.99741
P   max/avg/min : 101324.94 101319.28 101313.61
Prg max/avg/min : 101325.28 101324.98 101324.81
U   max/avg/min : 0.04500873 0.0018587472 -0.036135258
Prg max-min : 0.46285749
 
Iteration Number = 2197

DILUPBiCG:  Solving for Ux, Initial residual = 0.0067208837, Final residual = 2.1534195e-07, No Iterations 2
DILUPBiCG:  Solving for Uy, Initial residual = 0.0043491256, Final residual = 8.5353041e-08, No Iterations 2
DILUPBiCG:  Solving for Uz, Initial residual = 0.0001487909, Final residual = 2.5672418e-07, No Iterations 1
DILUPBiCG:  Solving for h, Initial residual = 0.0010322742, Final residual = 4.932076e-07, No Iterations 4
GAMG:  Solving for p_rgh, Initial residual = 0.0032035201, Final residual = 3.1007901e-06, No Iterations 7
time step continuity errors : sum local = 1.4932089e-05, global = 1.3221318e-06, cumulative = -3.846318e-05
ExecutionTime = 2691.72 s  ClockTime = 2695 s
Inflow      : 2.1467951e-07 [kg/s]
Outflow     : 2.1484938e-07 [kg/s]
EnergyInflow  : 0.06342968 [W]
EnergyOutflow : 0.073749643 [W]
rho max/avg/min : 1.1921866 1.1612136 1.1463197
T   max/avg/min : 307.8685 303.92834 295.99724
P   max/avg/min : 101324.94 101319.28 101313.61
Prg max/avg/min : 101325.28 101324.98 101324.81
U   max/avg/min : 0.045033266 0.0018602475 -0.036155854
Prg max-min : 0.46305954
 
Iteration Number = 2198

DILUPBiCG:  Solving for Ux, Initial residual = 0.0067194714, Final residual = 2.1404325e-07, No Iterations 2
DILUPBiCG:  Solving for Uy, Initial residual = 0.0043504612, Final residual = 8.4935119e-08, No Iterations 2
DILUPBiCG:  Solving for Uz, Initial residual = 0.00014899264, Final residual = 2.0304076e-07, No Iterations 1
DILUPBiCG:  Solving for h, Initial residual = 0.001031979, Final residual = 2.5826203e-07, No Iterations 4
GAMG:  Solving for p_rgh, Initial residual = 0.0032303952, Final residual = 2.6372528e-06, No Iterations 7
time step continuity errors : sum local = 1.2699676e-05, global = -1.0933538e-06, cumulative = -3.9556534e-05
ExecutionTime = 2692.64 s  ClockTime = 2696 s
Inflow      : 2.1519168e-07 [kg/s]
Outflow     : 2.150512e-07 [kg/s]
EnergyInflow  : 0.063581006 [W]
EnergyOutflow : 0.073818055 [W]
rho max/avg/min : 1.1921873 1.1611964 1.146298
T   max/avg/min : 307.87432 303.93284 295.99707
P   max/avg/min : 101324.94 101319.28 101313.61
Prg max/avg/min : 101325.28 101324.98 101324.81
U   max/avg/min : 0.045057517 0.001861752 -0.036174042
Prg max-min : 0.46324287
 
Iteration Number = 2199

DILUPBiCG:  Solving for Ux, Initial residual = 0.006721111, Final residual = 2.1597041e-07, No Iterations 2
DILUPBiCG:  Solving for Uy, Initial residual = 0.0043497841, Final residual = 8.5364106e-08, No Iterations 2
DILUPBiCG:  Solving for Uz, Initial residual = 0.00014802078, Final residual = 2.3500401e-07, No Iterations 1
DILUPBiCG:  Solving for h, Initial residual = 0.0010316978, Final residual = 4.9070494e-07, No Iterations 4
GAMG:  Solving for p_rgh, Initial residual = 0.0031853599, Final residual = 2.4053044e-06, No Iterations 7
time step continuity errors : sum local = 1.1584149e-05, global = 6.0244222e-07, cumulative = -3.8954092e-05
ExecutionTime = 2693.61 s  ClockTime = 2697 s
Inflow      : 2.1534079e-07 [kg/s]
Outflow     : 2.1541819e-07 [kg/s]
EnergyInflow  : 0.063625063 [W]
EnergyOutflow : 0.073936524 [W]
rho max/avg/min : 1.192188 1.1611792 1.1462763
T   max/avg/min : 307.88015 303.93735 295.9969
P   max/avg/min : 101324.94 101319.28 101313.61
Prg max/avg/min : 101325.28 101324.98 101324.81
U   max/avg/min : 0.045083288 0.0018632564 -0.036194826
Prg max-min : 0.46364633
 
Iteration Number = 2200

DILUPBiCG:  Solving for Ux, Initial residual = 0.0067207329, Final residual = 2.1558294e-07, No Iterations 2
DILUPBiCG:  Solving for Uy, Initial residual = 0.0043511443, Final residual = 8.5245586e-08, No Iterations 2
DILUPBiCG:  Solving for Uz, Initial residual = 0.00014930241, Final residual = 2.6346406e-07, No Iterations 1
DILUPBiCG:  Solving for h, Initial residual = 0.0010313932, Final residual = 2.5871856e-07, No Iterations 4
GAMG:  Solving for p_rgh, Initial residual = 0.0032545598, Final residual = 3.049666e-06, No Iterations 5
time step continuity errors : sum local = 1.468234e-05, global = -1.0332226e-07, cumulative = -3.9057414e-05
ExecutionTime = 2694.44 s  ClockTime = 2698 s
Inflow      : 2.1558753e-07 [kg/s]
Outflow     : 2.1557426e-07 [kg/s]
EnergyInflow  : 0.063697966 [W]
EnergyOutflow : 0.073992577 [W]
rho max/avg/min : 1.1921886 1.161162 1.1462547
T   max/avg/min : 307.88598 303.94186 295.99673
P   max/avg/min : 101324.94 101319.28 101313.61
Prg max/avg/min : 101325.28 101324.98 101324.81
U   max/avg/min : 0.045109088 0.0018647632 -0.036213537
Prg max-min : 0.46378042
 
Iteration Number = 2201

DILUPBiCG:  Solving for Ux, Initial residual = 0.0067207013, Final residual = 2.1614133e-07, No Iterations 2
DILUPBiCG:  Solving for Uy, Initial residual = 0.004349748, Final residual = 8.5557572e-08, No Iterations 2
DILUPBiCG:  Solving for Uz, Initial residual = 0.00014786739, Final residual = 2.4127509e-07, No Iterations 1
DILUPBiCG:  Solving for h, Initial residual = 0.0010310097, Final residual = 4.8986352e-07, No Iterations 4
GAMG:  Solving for p_rgh, Initial residual = 0.0032855118, Final residual = 2.3480527e-06, No Iterations 7
time step continuity errors : sum local = 1.1307872e-05, global = -4.1467054e-07, cumulative = -3.9472085e-05
ExecutionTime = 2695.37 s  ClockTime = 2699 s
Inflow      : 2.1604718e-07 [kg/s]
Outflow     : 2.159939e-07 [kg/s]
EnergyInflow  : 0.063833775 [W]
EnergyOutflow : 0.074126384 [W]
rho max/avg/min : 1.1921893 1.1611449 1.146233
T   max/avg/min : 307.89181 303.94637 295.99656
P   max/avg/min : 101324.94 101319.28 101313.61
Prg max/avg/min : 101325.28 101324.98 101324.81
U   max/avg/min : 0.045133838 0.0018662746 -0.036233395
Prg max-min : 0.46385463
 
Iteration Number = 2202

DILUPBiCG:  Solving for Ux, Initial residual = 0.0067204986, Final residual = 2.1468914e-07, No Iterations 2
DILUPBiCG:  Solving for Uy, Initial residual = 0.0043506235, Final residual = 8.5225303e-08, No Iterations 2
DILUPBiCG:  Solving for Uz, Initial residual = 0.00014850325, Final residual = 2.3324013e-07, No Iterations 1
DILUPBiCG:  Solving for h, Initial residual = 0.0010306988, Final residual = 2.2506129e-07, No Iterations 4
GAMG:  Solving for p_rgh, Initial residual = 0.0031862562, Final residual = 2.9224097e-06, No Iterations 6
time step continuity errors : sum local = 1.4068099e-05, global = -3.9128478e-06, cumulative = -4.3384932e-05
ExecutionTime = 2696.25 s  ClockTime = 2699 s
Inflow      : 2.1666136e-07 [kg/s]
Outflow     : 2.1615862e-07 [kg/s]
EnergyInflow  : 0.064015242 [W]
EnergyOutflow : 0.07418424 [W]
rho max/avg/min : 1.19219 1.1611277 1.1462113
T   max/avg/min : 307.89763 303.95087 295.9964
P   max/avg/min : 101324.94 101319.28 101313.61
Prg max/avg/min : 101325.28 101324.98 101324.81
U   max/avg/min : 0.045157366 0.00186779 -0.036251444
Prg max-min : 0.46400686
 
Iteration Number = 2203

