/*---------------------------------------------------------------------------*\
| =========                 |                                                 |
| \\      /  F ield         | OpenFOAM: The Open Source CFD Toolbox           |
|  \\    /   O peration     | Version:  4.0                                   |
|   \\  /    A nd           | Web:      www.OpenFOAM.org                      |
|    \\/     M anipulation  |                                                 |
\*---------------------------------------------------------------------------*/
Build  : 4.0-665f1db4c1f1
Exec   : pupoBuoyantSimpleFoam
Date   : Sep 18 2016
Time   : 11:14:51
Host   : "FAB2000"
PID    : 6325
Case   : /home/pedro/Documents/ThesisProject/OpenFoam/validation7rod/justfluid
nProcs : 1
sigFpe : Enabling floating point exception trapping (FOAM_SIGFPE).
fileModificationChecking : Monitoring run-time modified files using timeStampMaster
allowSystemOperations : Allowing user-supplied system call operations

// * * * * * * * * * * * * * * * * * * * * * * * * * * * * * * * * * * * * * //
Create time

Create mesh for time = 0


SIMPLE: convergence criteria
    field p_rgh	 tolerance 1e-06
    field Uz	 tolerance 1e-06
    field h	 tolerance 1e-06

Reading thermophysical properties

Selecting thermodynamics package 
{
    type            heRhoThermo;
    mixture         pureMixture;
    transport       sutherland;
    thermo          hConst;
    equationOfState perfectGas;
    specie          specie;
    energy          sensibleEnthalpy;
}


Reading g

Reading hRef
Calculating field g.h

Selecting turbulence model type laminar
No MRF models present

Selecting radiationModel none
 
rho max/avg/min : 1.176411 1.1763447 1.1762784
T   max/avg/min : 300 300 300
P   max/avg/min : 101324.94 101319.23 101313.52
Prg max/avg/min : 101325 101325 101325
U   max/avg/min : 0 0 0
 
sngrad(rho) :-0.00013397437 -0.00013397437 -0.00013397437
 
No finite volume options present


Starting Iteration loop

Iteration Number = 1

DILUPBiCG:  Solving for Ux, Initial residual = 0.99999999, Final residual = 9.0043305e-05, No Iterations 2
DILUPBiCG:  Solving for Uy, Initial residual = 0.99999999, Final residual = 6.1885499e-05, No Iterations 2
DILUPBiCG:  Solving for Uz, Initial residual = 1, Final residual = 7.4599687e-05, No Iterations 2
DILUPBiCG:  Solving for h, Initial residual = 1, Final residual = 0.00064830187, No Iterations 3
GAMG:  Solving for p_rgh, Initial residual = 0.86243619, Final residual = 0.0003104156, No Iterations 6
time step continuity errors : sum local = 6.1726927e-06, global = -2.0182951e-07, cumulative = -2.0182951e-07
ExecutionTime = 0.94 s  ClockTime = 1 s
Inflow      : -1.0446069e-08 [kg/s]
Outflow     : -1.074802e-08 [kg/s]
EnergyInflow  : -0.0031526235 [W]
EnergyOutflow : -0.0032437523 [W]
EnergyBalance : -9.1128775e-05 [W]
rho max/avg/min : 1.176411 1.1761528 1.1745855
T   max/avg/min : 300.43239 300.04899 300
P   max/avg/min : 101324.94 101319.23 101313.52
Prg max/avg/min : 101325 101325 101324.98
U   max/avg/min : 2.8447468e-07 -6.979468e-07 -1.8773206e-05
Prg max-min : 0.017372363
 
sngrad(rho) :0.33845528 0.038259549 -0.00013396889
 
Iteration Number = 2

DILUPBiCG:  Solving for Ux, Initial residual = 0.27420781, Final residual = 3.479886e-06, No Iterations 2
DILUPBiCG:  Solving for Uy, Initial residual = 0.2555586, Final residual = 2.3576328e-06, No Iterations 2
DILUPBiCG:  Solving for Uz, Initial residual = 0.28575029, Final residual = 1.559698e-05, No Iterations 2
DILUPBiCG:  Solving for h, Initial residual = 0.28968347, Final residual = 0.00026902016, No Iterations 3
GAMG:  Solving for p_rgh, Initial residual = 0.16343723, Final residual = 0.00010612207, No Iterations 8
time step continuity errors : sum local = 7.6241334e-06, global = 4.3328073e-07, cumulative = 2.3145121e-07
ExecutionTime = 1.4 s  ClockTime = 2 s
Inflow      : -1.7875498e-08 [kg/s]
Outflow     : -1.722728e-08 [kg/s]
EnergyInflow  : -0.0053948252 [W]
EnergyOutflow : -0.0051991931 [W]
EnergyBalance : 0.00019563215 [W]
rho max/avg/min : 1.176411 1.1759503 1.1735681
T   max/avg/min : 300.69302 300.10071 300
P   max/avg/min : 101324.94 101319.23 101313.52
Prg max/avg/min : 101325 101325 101324.97
U   max/avg/min : 9.4727776e-07 -1.2161063e-06 -2.2629256e-05
Prg max-min : 0.027106167
 
sngrad(rho) :0.54191725 0.078703509 -0.00013396205
 
Iteration Number = 3

DILUPBiCG:  Solving for Ux, Initial residual = 0.18270976, Final residual = 3.7977926e-06, No Iterations 2
DILUPBiCG:  Solving for Uy, Initial residual = 0.17999395, Final residual = 2.6276854e-06, No Iterations 2
DILUPBiCG:  Solving for Uz, Initial residual = 0.13766519, Final residual = 6.6294021e-06, No Iterations 2
DILUPBiCG:  Solving for h, Initial residual = 0.20768554, Final residual = 4.2175547e-05, No Iterations 4
GAMG:  Solving for p_rgh, Initial residual = 0.12422751, Final residual = 6.7374329e-05, No Iterations 8
time step continuity errors : sum local = 6.3121997e-06, global = 2.1861537e-07, cumulative = 4.5006658e-07
ExecutionTime = 1.85 s  ClockTime = 2 s
Inflow      : -1.6842739e-08 [kg/s]
Outflow     : -1.6515676e-08 [kg/s]
EnergyInflow  : -0.0050831388 [W]
EnergyOutflow : -0.0049844301 [W]
EnergyBalance : 9.8708692e-05 [W]
rho max/avg/min : 1.176411 1.1757342 1.1727578
T   max/avg/min : 300.90082 300.15594 300
P   max/avg/min : 101324.94 101319.23 101313.52
Prg max/avg/min : 101325 101325 101324.96
U   max/avg/min : 2.288957e-06 -7.0350691e-07 -2.1697465e-05
Prg max-min : 0.035352602
 
sngrad(rho) :0.16194484 0.050411901 -0.00013395066
 
Iteration Number = 4

DILUPBiCG:  Solving for Ux, Initial residual = 0.16294764, Final residual = 4.5372936e-06, No Iterations 2
DILUPBiCG:  Solving for Uy, Initial residual = 0.16219653, Final residual = 3.2427273e-06, No Iterations 2
DILUPBiCG:  Solving for Uz, Initial residual = 0.15155596, Final residual = 5.7471086e-06, No Iterations 2
DILUPBiCG:  Solving for h, Initial residual = 0.1600287, Final residual = 4.5271871e-05, No Iterations 4
GAMG:  Solving for p_rgh, Initial residual = 0.11356408, Final residual = 9.7722592e-05, No Iterations 8
time step continuity errors : sum local = 1.0884058e-05, global = 3.623149e-07, cumulative = 8.1238148e-07
ExecutionTime = 2.3 s  ClockTime = 3 s
Inflow      : -1.641074e-08 [kg/s]
Outflow     : -1.5868692e-08 [kg/s]
EnergyInflow  : -0.0049527614 [W]
EnergyOutflow : -0.0047891674 [W]
EnergyBalance : 0.00016359398 [W]
rho max/avg/min : 1.176411 1.1755062 1.172043
T   max/avg/min : 301.08435 300.21424 300
P   max/avg/min : 101324.94 101319.23 101313.52
Prg max/avg/min : 101325 101325 101324.96
U   max/avg/min : 4.5621296e-06 2.1632534e-07 -1.9534973e-05
Prg max-min : 0.042137078
 
sngrad(rho) :0.14281418 0.050506969 -0.0001339336
 
Iteration Number = 5

DILUPBiCG:  Solving for Ux, Initial residual = 0.14533341, Final residual = 4.7065854e-06, No Iterations 2
DILUPBiCG:  Solving for Uy, Initial residual = 0.14599515, Final residual = 3.7259176e-06, No Iterations 2
DILUPBiCG:  Solving for Uz, Initial residual = 0.15920501, Final residual = 2.9029518e-06, No Iterations 2
DILUPBiCG:  Solving for h, Initial residual = 0.13188245, Final residual = 4.7681983e-05, No Iterations 4
GAMG:  Solving for p_rgh, Initial residual = 0.10026564, Final residual = 4.9181024e-05, No Iterations 9
time step continuity errors : sum local = 6.872025e-06, global = 1.3765232e-06, cumulative = 2.1889047e-06
ExecutionTime = 2.82 s  ClockTime = 3 s
Inflow      : -1.7316129e-08 [kg/s]
Outflow     : -1.5256755e-08 [kg/s]
EnergyInflow  : -0.0052260077 [W]
EnergyOutflow : -0.0046044768 [W]
EnergyBalance : 0.00062153096 [W]
rho max/avg/min : 1.176411 1.1752682 1.1713879
T   max/avg/min : 301.25281 300.27513 300
P   max/avg/min : 101324.94 101319.23 101313.52
Prg max/avg/min : 101325 101324.99 101324.95
U   max/avg/min : 7.9818746e-06 1.526408e-06 -2.0022938e-05
Prg max-min : 0.048492379
 
sngrad(rho) :0.13089772 0.051149968 -0.00013391713
 
Iteration Number = 6

DILUPBiCG:  Solving for Ux, Initial residual = 0.13010555, Final residual = 4.3709807e-06, No Iterations 2
DILUPBiCG:  Solving for Uy, Initial residual = 0.13462737, Final residual = 3.6957297e-06, No Iterations 2
DILUPBiCG:  Solving for Uz, Initial residual = 0.18523489, Final residual = 3.6972313e-06, No Iterations 2
DILUPBiCG:  Solving for h, Initial residual = 0.11340002, Final residual = 5.0809569e-05, No Iterations 4
GAMG:  Solving for p_rgh, Initial residual = 0.087138455, Final residual = 7.7120814e-05, No Iterations 8
time step continuity errors : sum local = 1.357799e-05, global = -1.7381607e-07, cumulative = 2.0150887e-06
ExecutionTime = 3.28 s  ClockTime = 4 s
Inflow      : -1.4587107e-08 [kg/s]
Outflow     : -1.4847148e-08 [kg/s]
EnergyInflow  : -0.0044023889 [W]
EnergyOutflow : -0.0044808387 [W]
EnergyBalance : -7.8449745e-05 [W]
rho max/avg/min : 1.176411 1.1750217 1.1707753
T   max/avg/min : 301.4105 300.33821 300
P   max/avg/min : 101324.94 101319.23 101313.52
Prg max/avg/min : 101325 101324.99 101324.95
U   max/avg/min : 1.348665e-05 3.4327852e-06 -1.9984762e-05
Prg max-min : 0.054391949
 
sngrad(rho) :0.13016249 0.052343417 -0.00013389743
 
Iteration Number = 7

DILUPBiCG:  Solving for Ux, Initial residual = 0.12186927, Final residual = 4.8434538e-06, No Iterations 2
DILUPBiCG:  Solving for Uy, Initial residual = 0.12685682, Final residual = 4.3949637e-06, No Iterations 2
DILUPBiCG:  Solving for Uz, Initial residual = 0.17946133, Final residual = 3.9523341e-06, No Iterations 2
DILUPBiCG:  Solving for h, Initial residual = 0.10027946, Final residual = 5.1512973e-05, No Iterations 4
GAMG:  Solving for p_rgh, Initial residual = 0.076297594, Final residual = 7.4638595e-05, No Iterations 7
time step continuity errors : sum local = 1.5993797e-05, global = 2.0022182e-06, cumulative = 4.0173069e-06
ExecutionTime = 3.72 s  ClockTime = 4 s
Inflow      : -1.7475154e-08 [kg/s]
Outflow     : -1.4479698e-08 [kg/s]
EnergyInflow  : -0.0052740015 [W]
EnergyOutflow : -0.0043699059 [W]
EnergyBalance : 0.00090409567 [W]
rho max/avg/min : 1.176411 1.1747682 1.170195
T   max/avg/min : 301.56006 300.40314 300
P   max/avg/min : 101324.94 101319.23 101313.52
Prg max/avg/min : 101325 101324.99 101324.94
U   max/avg/min : 2.3176472e-05 5.9751436e-06 -2.1537755e-05
Prg max-min : 0.059977156
 
sngrad(rho) :0.15341496 0.052533996 -0.00013388023
 
Iteration Number = 8

DILUPBiCG:  Solving for Ux, Initial residual = 0.11305749, Final residual = 5.0404933e-06, No Iterations 2
DILUPBiCG:  Solving for Uy, Initial residual = 0.1153705, Final residual = 4.9537232e-06, No Iterations 2
DILUPBiCG:  Solving for Uz, Initial residual = 0.16474586, Final residual = 3.8827293e-06, No Iterations 2
DILUPBiCG:  Solving for h, Initial residual = 0.090411513, Final residual = 5.2145122e-05, No Iterations 4
GAMG:  Solving for p_rgh, Initial residual = 0.070477531, Final residual = 5.1178183e-05, No Iterations 8
time step continuity errors : sum local = 1.31537e-05, global = 1.0498498e-06, cumulative = 5.0671567e-06
ExecutionTime = 4.18 s  ClockTime = 5 s
Inflow      : -1.585609e-08 [kg/s]
Outflow     : -1.4285442e-08 [kg/s]
EnergyInflow  : -0.0047853678 [W]
EnergyOutflow : -0.0043112087 [W]
EnergyBalance : 0.00047415916 [W]
rho max/avg/min : 1.176411 1.1745087 1.1696401
T   max/avg/min : 301.70321 300.46964 300
P   max/avg/min : 101324.94 101319.23 101313.52
Prg max/avg/min : 101325 101324.99 101324.93
U   max/avg/min : 3.6496882e-05 9.3608948e-06 -2.2313271e-05
Prg max-min : 0.06525372
 
sngrad(rho) :0.17037592 0.052564959 -0.00013386493
 
Iteration Number = 9

DILUPBiCG:  Solving for Ux, Initial residual = 0.10642315, Final residual = 4.8245675e-06, No Iterations 2
DILUPBiCG:  Solving for Uy, Initial residual = 0.10841943, Final residual = 4.7451481e-06, No Iterations 2
DILUPBiCG:  Solving for Uz, Initial residual = 0.14205154, Final residual = 3.5158373e-06, No Iterations 2
DILUPBiCG:  Solving for h, Initial residual = 0.082690732, Final residual = 5.2972575e-05, No Iterations 4
GAMG:  Solving for p_rgh, Initial residual = 0.062367533, Final residual = 5.2279874e-05, No Iterations 9
time step continuity errors : sum local = 1.578972e-05, global = 5.5187653e-07, cumulative = 5.6190332e-06
ExecutionTime = 4.67 s  ClockTime = 5 s
Inflow      : -1.5323136e-08 [kg/s]
Outflow     : -1.4497491e-08 [kg/s]
EnergyInflow  : -0.0046245225 [W]
EnergyOutflow : -0.0043751073 [W]
EnergyBalance : 0.00024941523 [W]
rho max/avg/min : 1.176411 1.1742441 1.169106
T   max/avg/min : 301.84116 300.53747 300
P   max/avg/min : 101324.94 101319.23 101313.52
Prg max/avg/min : 101325 101324.99 101324.93
U   max/avg/min : 5.3966234e-05 1.3666117e-05 -2.3680968e-05
Prg max-min : 0.070455036
 
sngrad(rho) :0.10669624 0.053355684 -0.00013384086
 
Iteration Number = 10

DILUPBiCG:  Solving for Ux, Initial residual = 0.10087243, Final residual = 4.6302781e-06, No Iterations 2
DILUPBiCG:  Solving for Uy, Initial residual = 0.10124256, Final residual = 4.8259109e-06, No Iterations 2
DILUPBiCG:  Solving for Uz, Initial residual = 0.12701328, Final residual = 3.2884177e-06, No Iterations 2
DILUPBiCG:  Solving for h, Initial residual = 0.076506169, Final residual = 5.2426184e-05, No Iterations 4
GAMG:  Solving for p_rgh, Initial residual = 0.061800962, Final residual = 5.9780224e-05, No Iterations 8
time step continuity errors : sum local = 2.086264e-05, global = 1.1937718e-06, cumulative = 6.812805e-06
ExecutionTime = 5.13 s  ClockTime = 6 s
Inflow      : -1.6577994e-08 [kg/s]
Outflow     : -1.4792029e-08 [kg/s]
EnergyInflow  : -0.0050032387 [W]
EnergyOutflow : -0.0044637898 [W]
EnergyBalance : 0.00053944889 [W]
rho max/avg/min : 1.176411 1.1739751 1.1685889
T   max/avg/min : 301.97482 300.60645 300
P   max/avg/min : 101324.94 101319.23 101313.52
Prg max/avg/min : 101325 101324.99 101324.92
U   max/avg/min : 7.580437e-05 1.8820134e-05 -2.7274871e-05
Prg max-min : 0.07516932
 
sngrad(rho) :0.10328063 0.053985224 -0.00013379869
 
Iteration Number = 11

DILUPBiCG:  Solving for Ux, Initial residual = 0.094260969, Final residual = 3.615286e-06, No Iterations 2
DILUPBiCG:  Solving for Uy, Initial residual = 0.092041886, Final residual = 4.3375e-06, No Iterations 2
DILUPBiCG:  Solving for Uz, Initial residual = 0.11130183, Final residual = 3.006621e-06, No Iterations 2
DILUPBiCG:  Solving for h, Initial residual = 0.071373806, Final residual = 5.2495372e-05, No Iterations 4
GAMG:  Solving for p_rgh, Initial residual = 0.05541157, Final residual = 1.8325344e-05, No Iterations 10
time step continuity errors : sum local = 7.2536752e-06, global = 1.9833075e-06, cumulative = 8.7961125e-06
ExecutionTime = 5.63 s  ClockTime = 6 s
Inflow      : -1.8762215e-08 [kg/s]
Outflow     : -1.579505e-08 [kg/s]
EnergyInflow  : -0.0056624364 [W]
EnergyOutflow : -0.0047663045 [W]
EnergyBalance : 0.00089613193 [W]
rho max/avg/min : 1.176411 1.1737026 1.1680862
T   max/avg/min : 302.10492 300.6764 300
P   max/avg/min : 101324.94 101319.23 101313.52
Prg max/avg/min : 101325 101324.99 101324.92
U   max/avg/min : 0.0001024769 2.5127918e-05 -3.1023814e-05
Prg max-min : 0.080156298
 
sngrad(rho) :0.10042249 0.054826836 -0.00013372202
 
Iteration Number = 12

DILUPBiCG:  Solving for Ux, Initial residual = 0.088612386, Final residual = 3.4575363e-06, No Iterations 2
DILUPBiCG:  Solving for Uy, Initial residual = 0.090111616, Final residual = 4.6588009e-06, No Iterations 2
DILUPBiCG:  Solving for Uz, Initial residual = 0.10038384, Final residual = 2.7975959e-06, No Iterations 2
DILUPBiCG:  Solving for h, Initial residual = 0.067063374, Final residual = 5.2164002e-05, No Iterations 4
GAMG:  Solving for p_rgh, Initial residual = 0.059912972, Final residual = 4.9718171e-05, No Iterations 8
time step continuity errors : sum local = 2.2106906e-05, global = 1.37633e-06, cumulative = 1.0172442e-05
ExecutionTime = 6.08 s  ClockTime = 7 s
Inflow      : -1.9545569e-08 [kg/s]
Outflow     : -1.7486484e-08 [kg/s]
EnergyInflow  : -0.0058988527 [W]
EnergyOutflow : -0.005276337 [W]
EnergyBalance : 0.00062251571 [W]
rho max/avg/min : 1.176411 1.1734269 1.1675954
T   max/avg/min : 302.232 300.74718 300
P   max/avg/min : 101324.94 101319.23 101313.52
Prg max/avg/min : 101325 101324.99 101324.92
U   max/avg/min : 0.00013396746 3.2391954e-05 -3.8017699e-05
Prg max-min : 0.084459856
 
sngrad(rho) :0.098010181 0.055286115 -0.00013358485
 
Iteration Number = 13

DILUPBiCG:  Solving for Ux, Initial residual = 0.083809905, Final residual = 3.4004972e-06, No Iterations 2
DILUPBiCG:  Solving for Uy, Initial residual = 0.078679917, Final residual = 3.8514138e-06, No Iterations 2
DILUPBiCG:  Solving for Uz, Initial residual = 0.089441308, Final residual = 2.5850577e-06, No Iterations 2
DILUPBiCG:  Solving for h, Initial residual = 0.063380342, Final residual = 5.2753426e-05, No Iterations 4
GAMG:  Solving for p_rgh, Initial residual = 0.059965328, Final residual = 5.988541e-05, No Iterations 8
time step continuity errors : sum local = 2.962288e-05, global = 2.5714855e-06, cumulative = 1.2743928e-05
ExecutionTime = 6.53 s  ClockTime = 7 s
Inflow      : -2.3644804e-08 [kg/s]
Outflow     : -1.9797684e-08 [kg/s]
EnergyInflow  : -0.0071360019 [W]
EnergyOutflow : -0.0059734102 [W]
EnergyBalance : 0.0011625916 [W]
rho max/avg/min : 1.176411 1.1731486 1.167115
T   max/avg/min : 302.35654 300.81869 300
P   max/avg/min : 101324.94 101319.23 101313.52
Prg max/avg/min : 101325 101324.98 101324.91
U   max/avg/min : 0.00017079111 4.0850904e-05 -4.826156e-05
Prg max-min : 0.089231523
 
sngrad(rho) :0.09595899 0.056152174 -0.00013334775
 
Iteration Number = 14

DILUPBiCG:  Solving for Ux, Initial residual = 0.080452634, Final residual = 3.721214e-06, No Iterations 2
DILUPBiCG:  Solving for Uy, Initial residual = 0.082780746, Final residual = 4.445372e-06, No Iterations 2
DILUPBiCG:  Solving for Uz, Initial residual = 0.082782182, Final residual = 2.4745577e-06, No Iterations 2
DILUPBiCG:  Solving for h, Initial residual = 0.060088808, Final residual = 5.081112e-05, No Iterations 4
GAMG:  Solving for p_rgh, Initial residual = 0.053370058, Final residual = 1.5300564e-05, No Iterations 9
time step continuity errors : sum local = 8.382307e-06, global = 9.2506409e-07, cumulative = 1.3668992e-05
ExecutionTime = 7 s  ClockTime = 7 s
Inflow      : -2.4835844e-08 [kg/s]
Outflow     : -2.3451884e-08 [kg/s]
EnergyInflow  : -0.0074954577 [W]
EnergyOutflow : -0.007075476 [W]
EnergyBalance : 0.0004199817 [W]
rho max/avg/min : 1.176411 1.172868 1.1666433
T   max/avg/min : 302.4789 300.89082 300
P   max/avg/min : 101324.94 101319.23 101313.52
Prg max/avg/min : 101325 101324.98 101324.91
U   max/avg/min : 0.00021276799 5.0646737e-05 -5.6728548e-05
Prg max-min : 0.093353109
 
sngrad(rho) :0.094200845 0.056370705 -0.00013295295
 
Iteration Number = 15

DILUPBiCG:  Solving for Ux, Initial residual = 0.078012202, Final residual = 3.5791084e-06, No Iterations 2
DILUPBiCG:  Solving for Uy, Initial residual = 0.074295878, Final residual = 4.1700662e-06, No Iterations 2
DILUPBiCG:  Solving for Uz, Initial residual = 0.073364126, Final residual = 2.189237e-06, No Iterations 2
DILUPBiCG:  Solving for h, Initial residual = 0.057238173, Final residual = 5.0506785e-05, No Iterations 4
GAMG:  Solving for p_rgh, Initial residual = 0.056175993, Final residual = 4.4860372e-05, No Iterations 8
time step continuity errors : sum local = 2.6676977e-05, global = 2.036694e-06, cumulative = 1.5705686e-05
ExecutionTime = 7.45 s  ClockTime = 8 s
Inflow      : -3.0587898e-08 [kg/s]
Outflow     : -2.7540863e-08 [kg/s]
EnergyInflow  : -0.0092314275 [W]
EnergyOutflow : -0.0083086245 [W]
EnergyBalance : 0.00092280304 [W]
rho max/avg/min : 1.176411 1.1725855 1.1661792
T   max/avg/min : 302.59939 300.96348 300
P   max/avg/min : 101324.94 101319.23 101313.52
Prg max/avg/min : 101325 101324.98 101324.9
U   max/avg/min : 0.00026016003 6.1650495e-05 -7.1623196e-05
Prg max-min : 0.098070422
 
sngrad(rho) :0.13895952 0.05720235 -0.00013231964
 
Iteration Number = 16

DILUPBiCG:  Solving for Ux, Initial residual = 0.071365907, Final residual = 3.6407872e-06, No Iterations 2
DILUPBiCG:  Solving for Uy, Initial residual = 0.077723235, Final residual = 4.6030758e-06, No Iterations 2
DILUPBiCG:  Solving for Uz, Initial residual = 0.069675055, Final residual = 2.1790044e-06, No Iterations 2
DILUPBiCG:  Solving for h, Initial residual = 0.054769805, Final residual = 5.0110027e-05, No Iterations 4
GAMG:  Solving for p_rgh, Initial residual = 0.056206211, Final residual = 4.7619975e-05, No Iterations 8
time step continuity errors : sum local = 3.0888305e-05, global = 1.1425592e-06, cumulative = 1.6848245e-05
ExecutionTime = 7.92 s  ClockTime = 8 s
Inflow      : -3.4935268e-08 [kg/s]
Outflow     : -3.3225921e-08 [kg/s]
EnergyInflow  : -0.010543464 [W]
EnergyOutflow : -0.010023231 [W]
EnergyBalance : 0.00052023261 [W]
rho max/avg/min : 1.176411 1.1723013 1.1657216
T   max/avg/min : 302.71829 301.03662 300
P   max/avg/min : 101324.94 101319.23 101313.52
Prg max/avg/min : 101325 101324.98 101324.9
U   max/avg/min : 0.00031282549 7.3994018e-05 -8.7316634e-05
Prg max-min : 0.1017627
 
sngrad(rho) :0.10549905 0.057290327 -0.00013133814
 
Iteration Number = 17

DILUPBiCG:  Solving for Ux, Initial residual = 0.070503644, Final residual = 3.2992975e-06, No Iterations 2
DILUPBiCG:  Solving for Uy, Initial residual = 0.062677306, Final residual = 3.4492677e-06, No Iterations 2
DILUPBiCG:  Solving for Uz, Initial residual = 0.062783309, Final residual = 1.9527926e-06, No Iterations 2
DILUPBiCG:  Solving for h, Initial residual = 0.052446556, Final residual = 4.8271303e-05, No Iterations 4
GAMG:  Solving for p_rgh, Initial residual = 0.050083338, Final residual = 4.1861027e-05, No Iterations 8
time step continuity errors : sum local = 2.9240133e-05, global = -1.9329327e-07, cumulative = 1.6654952e-05
ExecutionTime = 8.37 s  ClockTime = 9 s
Inflow      : -3.9985404e-08 [kg/s]
Outflow     : -4.0274584e-08 [kg/s]
EnergyInflow  : -0.012067595 [W]
EnergyOutflow : -0.012148992 [W]
EnergyBalance : -8.1396824e-05 [W]
rho max/avg/min : 1.176411 1.1720157 1.1652698
T   max/avg/min : 302.8358 301.11017 300
P   max/avg/min : 101324.94 101319.23 101313.52
Prg max/avg/min : 101325 101324.98 101324.89
U   max/avg/min : 0.00037119911 8.7766343e-05 -0.00010768432
Prg max-min : 0.10669186
 
sngrad(rho) :0.13623912 0.057859401 -0.00012986423
 
Iteration Number = 18

DILUPBiCG:  Solving for Ux, Initial residual = 0.063236402, Final residual = 3.067478e-06, No Iterations 2
DILUPBiCG:  Solving for Uy, Initial residual = 0.071142263, Final residual = 4.1498399e-06, No Iterations 2
DILUPBiCG:  Solving for Uz, Initial residual = 0.059724818, Final residual = 1.9230439e-06, No Iterations 2
DILUPBiCG:  Solving for h, Initial residual = 0.050381481, Final residual = 4.7789613e-05, No Iterations 4
GAMG:  Solving for p_rgh, Initial residual = 0.054814674, Final residual = 5.1644728e-05, No Iterations 7
time step continuity errors : sum local = 3.8929116e-05, global = 1.9180167e-06, cumulative = 1.8572969e-05
ExecutionTime = 8.81 s  ClockTime = 9 s
Inflow      : -5.2704131e-08 [kg/s]
Outflow     : -4.9834646e-08 [kg/s]
EnergyInflow  : -0.015906107 [W]
EnergyOutflow : -0.01503204 [W]
EnergyBalance : 0.00087406689 [W]
rho max/avg/min : 1.176411 1.1717288 1.1648228
T   max/avg/min : 302.95211 301.18408 300.00001
P   max/avg/min : 101324.94 101319.23 101313.52
Prg max/avg/min : 101325 101324.98 101324.89
U   max/avg/min : 0.00043462383 0.00010263132 -0.00013578357
Prg max-min : 0.11009924
 
sngrad(rho) :0.16217297 0.058155215 -0.00012773467
 
Iteration Number = 19

DILUPBiCG:  Solving for Ux, Initial residual = 0.062539712, Final residual = 3.0919169e-06, No Iterations 2
DILUPBiCG:  Solving for Uy, Initial residual = 0.058198835, Final residual = 3.2514031e-06, No Iterations 2
DILUPBiCG:  Solving for Uz, Initial residual = 0.055480137, Final residual = 1.8078843e-06, No Iterations 2
DILUPBiCG:  Solving for h, Initial residual = 0.048495948, Final residual = 4.6886033e-05, No Iterations 4
GAMG:  Solving for p_rgh, Initial residual = 0.053573749, Final residual = 4.7761479e-05, No Iterations 8
time step continuity errors : sum local = 3.8270783e-05, global = 2.3951405e-06, cumulative = 2.0968109e-05
ExecutionTime = 9.26 s  ClockTime = 10 s
Inflow      : -6.438158e-08 [kg/s]
Outflow     : -6.0798284e-08 [kg/s]
EnergyInflow  : -0.019430361 [W]
EnergyOutflow : -0.018338798 [W]
EnergyBalance : 0.0010915626 [W]
rho max/avg/min : 1.176411 1.1714408 1.1643802
T   max/avg/min : 303.06738 301.25831 300.00001
P   max/avg/min : 101324.94 101319.23 101313.52
Prg max/avg/min : 101325 101324.98 101324.89
U   max/avg/min : 0.00050434055 0.00011932292 -0.00016380744
Prg max-min : 0.11501561
 
sngrad(rho) :0.19080749 0.058401475 -0.00012467876
 
Iteration Number = 20

DILUPBiCG:  Solving for Ux, Initial residual = 0.059631744, Final residual = 2.992449e-06, No Iterations 2
DILUPBiCG:  Solving for Uy, Initial residual = 0.065344096, Final residual = 3.9416759e-06, No Iterations 2
DILUPBiCG:  Solving for Uz, Initial residual = 0.051818431, Final residual = 1.6949012e-06, No Iterations 2
DILUPBiCG:  Solving for h, Initial residual = 0.046764984, Final residual = 4.5665488e-05, No Iterations 4
GAMG:  Solving for p_rgh, Initial residual = 0.051783351, Final residual = 4.5851792e-05, No Iterations 7
time step continuity errors : sum local = 3.9429115e-05, global = 1.0945995e-06, cumulative = 2.2062709e-05
ExecutionTime = 9.7 s  ClockTime = 10 s
Inflow      : -7.6823487e-08 [kg/s]
Outflow     : -7.5185891e-08 [kg/s]
EnergyInflow  : -0.023185328 [W]
EnergyOutflow : -0.022678213 [W]
EnergyBalance : 0.00050711501 [W]
rho max/avg/min : 1.176411 1.171152 1.1639414
T   max/avg/min : 303.18174 301.33282 300.00002
P   max/avg/min : 101324.94 101319.23 101313.52
Prg max/avg/min : 101325 101324.98 101324.88
U   max/avg/min : 0.00058072918 0.00013703251 -0.00020077238
Prg max-min : 0.11841127
 
sngrad(rho) :0.095214717 0.058435594 -0.00012043492
 
Iteration Number = 21

DILUPBiCG:  Solving for Ux, Initial residual = 0.057648367, Final residual = 2.8305161e-06, No Iterations 2
DILUPBiCG:  Solving for Uy, Initial residual = 0.057686698, Final residual = 3.0434301e-06, No Iterations 2
DILUPBiCG:  Solving for Uz, Initial residual = 0.049295228, Final residual = 1.6615679e-06, No Iterations 2
DILUPBiCG:  Solving for h, Initial residual = 0.04517932, Final residual = 4.4813532e-05, No Iterations 4
GAMG:  Solving for p_rgh, Initial residual = 0.054843796, Final residual = 5.0992359e-05, No Iterations 7
time step continuity errors : sum local = 4.6614385e-05, global = 3.1178798e-06, cumulative = 2.5180589e-05
ExecutionTime = 10.14 s  ClockTime = 11 s
Inflow      : -9.6289571e-08 [kg/s]
Outflow     : -9.1625008e-08 [kg/s]
EnergyInflow  : -0.029060193 [W]
EnergyOutflow : -0.027636262 [W]
EnergyBalance : 0.0014239307 [W]
rho max/avg/min : 1.176411 1.1708623 1.163506
T   max/avg/min : 303.29528 301.40758 300.00002
P   max/avg/min : 101324.94 101319.23 101313.52
Prg max/avg/min : 101325 101324.97 101324.88
U   max/avg/min : 0.00066682486 0.00015624456 -0.00024521111
Prg max-min : 0.12315552
 
sngrad(rho) :0.11404472 0.058736885 -0.00011460485
 
Iteration Number = 22

DILUPBiCG:  Solving for Ux, Initial residual = 0.053224201, Final residual = 2.6583076e-06, No Iterations 2
DILUPBiCG:  Solving for Uy, Initial residual = 0.060734836, Final residual = 3.716908e-06, No Iterations 2
DILUPBiCG:  Solving for Uz, Initial residual = 0.046696129, Final residual = 1.5870456e-06, No Iterations 2
DILUPBiCG:  Solving for h, Initial residual = 0.043680686, Final residual = 9.348034e-06, No Iterations 5
GAMG:  Solving for p_rgh, Initial residual = 0.053134675, Final residual = 4.7499501e-05, No Iterations 7
time step continuity errors : sum local = 4.6323466e-05, global = 2.4793004e-06, cumulative = 2.7659889e-05
ExecutionTime = 10.59 s  ClockTime = 11 s
Inflow      : -1.1297147e-07 [kg/s]
Outflow     : -1.0926227e-07 [kg/s]
EnergyInflow  : -0.03409479 [W]
EnergyOutflow : -0.032954852 [W]
EnergyBalance : 0.0011399383 [W]
rho max/avg/min : 1.1764109 1.170572 1.1630736
T   max/avg/min : 303.40814 301.48256 300.00003
P   max/avg/min : 101324.94 101319.23 101313.52
Prg max/avg/min : 101325 101324.97 101324.87
U   max/avg/min : 0.00075921116 0.00017718714 -0.00029108491
Prg max-min : 0.12700121
 
sngrad(rho) :0.13497767 0.059050167 -0.00010673885
 
Iteration Number = 23

DILUPBiCG:  Solving for Ux, Initial residual = 0.054422122, Final residual = 2.6127976e-06, No Iterations 2
DILUPBiCG:  Solving for Uy, Initial residual = 0.055484235, Final residual = 3.014164e-06, No Iterations 2
DILUPBiCG:  Solving for Uz, Initial residual = 0.04380746, Final residual = 1.4907434e-06, No Iterations 2
DILUPBiCG:  Solving for h, Initial residual = 0.042307194, Final residual = 9.0656174e-06, No Iterations 5
GAMG:  Solving for p_rgh, Initial residual = 0.050922512, Final residual = 4.7792531e-05, No Iterations 7
time step continuity errors : sum local = 4.9304119e-05, global = 2.335557e-06, cumulative = 2.9995446e-05
ExecutionTime = 11.05 s  ClockTime = 11 s
Inflow      : -1.3474422e-07 [kg/s]
Outflow     : -1.3125007e-07 [kg/s]
EnergyInflow  : -0.040665806 [W]
EnergyOutflow : -0.039586667 [W]
EnergyBalance : 0.0010791394 [W]
rho max/avg/min : 1.1764109 1.170281 1.1626439
T   max/avg/min : 303.52038 301.55775 300.00004
P   max/avg/min : 101324.94 101319.23 101313.52
Prg max/avg/min : 101325 101324.97 101324.87
U   max/avg/min : 0.00086068396 0.00019961553 -0.00034666448
Prg max-min : 0.13122547
 
sngrad(rho) :0.15665371 0.059377237 -9.6258449e-05
 
Iteration Number = 24

DILUPBiCG:  Solving for Ux, Initial residual = 0.049988945, Final residual = 2.5436904e-06, No Iterations 2
DILUPBiCG:  Solving for Uy, Initial residual = 0.060606684, Final residual = 3.7250105e-06, No Iterations 2
DILUPBiCG:  Solving for Uz, Initial residual = 0.042007216, Final residual = 1.4574735e-06, No Iterations 2
DILUPBiCG:  Solving for h, Initial residual = 0.041012634, Final residual = 8.890251e-06, No Iterations 5
GAMG:  Solving for p_rgh, Initial residual = 0.051317107, Final residual = 4.9211938e-05, No Iterations 7
time step continuity errors : sum local = 5.3875494e-05, global = 1.5191416e-06, cumulative = 3.1514588e-05
ExecutionTime = 11.48 s  ClockTime = 12 s
Inflow      : -1.5820347e-07 [kg/s]
Outflow     : -1.5593073e-07 [kg/s]
EnergyInflow  : -0.047745808 [W]
EnergyOutflow : -0.047029953 [W]
EnergyBalance : 0.00071585507 [W]
rho max/avg/min : 1.1764108 1.1699895 1.1622166
T   max/avg/min : 303.63205 301.6331 300.00006
P   max/avg/min : 101324.94 101319.23 101313.52
Prg max/avg/min : 101325 101324.97 101324.87
U   max/avg/min : 0.00096391365 0.00022348716 -0.0004101876
Prg max-min : 0.13515635
 
sngrad(rho) :0.18276622 0.059582354 -8.2700079e-05
 
Iteration Number = 25

DILUPBiCG:  Solving for Ux, Initial residual = 0.049684988, Final residual = 2.5175876e-06, No Iterations 2
DILUPBiCG:  Solving for Uy, Initial residual = 0.052857086, Final residual = 2.9981675e-06, No Iterations 2
DILUPBiCG:  Solving for Uz, Initial residual = 0.039899017, Final residual = 1.3963536e-06, No Iterations 2
DILUPBiCG:  Solving for h, Initial residual = 0.039816504, Final residual = 8.7867067e-06, No Iterations 5
GAMG:  Solving for p_rgh, Initial residual = 0.05093874, Final residual = 4.0403999e-05, No Iterations 7
time step continuity errors : sum local = 4.6609944e-05, global = 2.9430753e-06, cumulative = 3.4457663e-05
ExecutionTime = 11.95 s  ClockTime = 12 s
Inflow      : -1.8908506e-07 [kg/s]
Outflow     : -1.8468201e-07 [kg/s]
EnergyInflow  : -0.057065871 [W]
EnergyOutflow : -0.055700664 [W]
EnergyBalance : 0.0013652067 [W]
rho max/avg/min : 1.1764108 1.1696976 1.1617916
T   max/avg/min : 303.74321 301.70861 300.00007
P   max/avg/min : 101324.94 101319.23 101313.52
Prg max/avg/min : 101325 101324.97 101324.86
U   max/avg/min : 0.0010867413 0.00024889702 -0.0004803084
Prg max-min : 0.1395511
 
sngrad(rho) :0.20872381 0.059925849 -6.5258235e-05
 
Iteration Number = 26

DILUPBiCG:  Solving for Ux, Initial residual = 0.046472937, Final residual = 2.3442763e-06, No Iterations 2
DILUPBiCG:  Solving for Uy, Initial residual = 0.05730939, Final residual = 3.4634112e-06, No Iterations 2
DILUPBiCG:  Solving for Uz, Initial residual = 0.038335215, Final residual = 1.3579091e-06, No Iterations 2
DILUPBiCG:  Solving for h, Initial residual = 0.038686548, Final residual = 8.7162452e-06, No Iterations 5
GAMG:  Solving for p_rgh, Initial residual = 0.052327843, Final residual = 4.4949485e-05, No Iterations 7
time step continuity errors : sum local = 5.4711341e-05, global = 1.6950686e-06, cumulative = 3.6152731e-05
ExecutionTime = 12.39 s  ClockTime = 13 s
Inflow      : -2.1958794e-07 [kg/s]
Outflow     : -2.17052e-07 [kg/s]
EnergyInflow  : -0.066271639 [W]
EnergyOutflow : -0.065462458 [W]
EnergyBalance : 0.00080918144 [W]
rho max/avg/min : 1.1764107 1.1694054 1.1613687
T   max/avg/min : 303.8539 301.78425 300.0001
P   max/avg/min : 101324.94 101319.23 101313.52
Prg max/avg/min : 101325 101324.97 101324.86
U   max/avg/min : 0.001203733 0.00027581666 -0.00056376239
Prg max-min : 0.14345773
 
sngrad(rho) :0.23636007 0.060308558 -4.3334797e-05
 
Iteration Number = 27

DILUPBiCG:  Solving for Ux, Initial residual = 0.047579964, Final residual = 2.4849009e-06, No Iterations 2
DILUPBiCG:  Solving for Uy, Initial residual = 0.052190793, Final residual = 3.0489851e-06, No Iterations 2
DILUPBiCG:  Solving for Uz, Initial residual = 0.036582423, Final residual = 1.3062268e-06, No Iterations 2
DILUPBiCG:  Solving for h, Initial residual = 0.0376067, Final residual = 8.4906904e-06, No Iterations 5
GAMG:  Solving for p_rgh, Initial residual = 0.050747417, Final residual = 3.5685879e-05, No Iterations 7
time step continuity errors : sum local = 4.5715e-05, global = 3.2895541e-06, cumulative = 3.9442286e-05
ExecutionTime = 12.83 s  ClockTime = 13 s
Inflow      : -2.5899404e-07 [kg/s]
Outflow     : -2.5407264e-07 [kg/s]
EnergyInflow  : -0.078164401 [W]
EnergyOutflow : -0.076626791 [W]
EnergyBalance : 0.0015376103 [W]
rho max/avg/min : 1.1764106 1.1691128 1.1609477
T   max/avg/min : 303.96416 301.86004 300.00012
P   max/avg/min : 101324.94 101319.23 101313.52
Prg max/avg/min : 101325 101324.97 101324.85
U   max/avg/min : 0.0013485393 0.00030420634 -0.00065446903
Prg max-min : 0.1475557
 
sngrad(rho) :0.17112875 0.060387533 -1.5863261e-05
 
Iteration Number = 28

DILUPBiCG:  Solving for Ux, Initial residual = 0.046133194, Final residual = 2.5087694e-06, No Iterations 2
DILUPBiCG:  Solving for Uy, Initial residual = 0.054568737, Final residual = 3.3827263e-06, No Iterations 2
DILUPBiCG:  Solving for Uz, Initial residual = 0.035194677, Final residual = 1.2716339e-06, No Iterations 2
DILUPBiCG:  Solving for h, Initial residual = 0.036591446, Final residual = 8.4373193e-06, No Iterations 5
GAMG:  Solving for p_rgh, Initial residual = 0.050055983, Final residual = 4.3301871e-05, No Iterations 7
time step continuity errors : sum local = 5.8436381e-05, global = 1.6550442e-06, cumulative = 4.109733e-05
ExecutionTime = 13.28 s  ClockTime = 14 s
Inflow      : -2.99042e-07 [kg/s]
Outflow     : -2.9656594e-07 [kg/s]
EnergyInflow  : -0.090250875 [W]
EnergyOutflow : -0.08944187 [W]
EnergyBalance : 0.00080900546 [W]
rho max/avg/min : 1.1764104 1.1688199 1.1605285
T   max/avg/min : 304.07403 301.93592 300.00016
P   max/avg/min : 101324.94 101319.23 101313.52
Prg max/avg/min : 101325 101324.96 101324.85
U   max/avg/min : 0.0014997358 0.00033398633 -0.00075973377
Prg max-min : 0.15152782
 
sngrad(rho) :0.19507956 0.060793077 1.7761969e-05
 
Iteration Number = 29

DILUPBiCG:  Solving for Ux, Initial residual = 0.044099728, Final residual = 2.3086207e-06, No Iterations 2
DILUPBiCG:  Solving for Uy, Initial residual = 0.048853435, Final residual = 3.0407171e-06, No Iterations 2
DILUPBiCG:  Solving for Uz, Initial residual = 0.033813012, Final residual = 1.235859e-06, No Iterations 2
DILUPBiCG:  Solving for h, Initial residual = 0.035640934, Final residual = 8.3316037e-06, No Iterations 5
GAMG:  Solving for p_rgh, Initial residual = 0.048056239, Final residual = 3.3844561e-05, No Iterations 7
time step continuity errors : sum local = 4.7831542e-05, global = 3.481577e-06, cumulative = 4.4578907e-05
ExecutionTime = 13.72 s  ClockTime = 14 s
Inflow      : -3.5078953e-07 [kg/s]
Outflow     : -3.4558085e-07 [kg/s]
EnergyInflow  : -0.10586828 [W]
EnergyOutflow : -0.10422487 [W]
EnergyBalance : 0.0016434065 [W]
rho max/avg/min : 1.1764103 1.1685268 1.1601109
T   max/avg/min : 304.18354 302.01191 300.0002
P   max/avg/min : 101324.94 101319.23 101313.52
Prg max/avg/min : 101325 101324.96 101324.85
U   max/avg/min : 0.0016621285 0.000365124 -0.00087491108
Prg max-min : 0.15543716
 
sngrad(rho) :0.22108014 0.061052786 5.8422239e-05
 
Iteration Number = 30

DILUPBiCG:  Solving for Ux, Initial residual = 0.042818238, Final residual = 2.4135253e-06, No Iterations 2
DILUPBiCG:  Solving for Uy, Initial residual = 0.050708713, Final residual = 3.3355385e-06, No Iterations 2
DILUPBiCG:  Solving for Uz, Initial residual = 0.032646675, Final residual = 1.2070151e-06, No Iterations 2
DILUPBiCG:  Solving for h, Initial residual = 0.034733273, Final residual = 8.1359243e-06, No Iterations 5
GAMG:  Solving for p_rgh, Initial residual = 0.048608049, Final residual = 4.8267011e-05, No Iterations 6
time step continuity errors : sum local = 7.1666238e-05, global = 3.9311315e-06, cumulative = 4.8510038e-05
ExecutionTime = 14.16 s  ClockTime = 15 s
Inflow      : -4.0644728e-07 [kg/s]
Outflow     : -4.0056604e-07 [kg/s]
EnergyInflow  : -0.12266579 [W]
EnergyOutflow : -0.12080801 [W]
EnergyBalance : 0.0018577821 [W]
rho max/avg/min : 1.1764101 1.1682336 1.1596949
T   max/avg/min : 304.29272 302.08799 300.00025
P   max/avg/min : 101324.94 101319.23 101313.52
Prg max/avg/min : 101325 101324.96 101324.84
U   max/avg/min : 0.0018329961 0.00039746747 -0.0010071673
Prg max-min : 0.1596368
 
sngrad(rho) :0.24776651 0.061492935 0.00010741448
 
Iteration Number = 31

DILUPBiCG:  Solving for Ux, Initial residual = 0.04265726, Final residual = 2.3459356e-06, No Iterations 2
DILUPBiCG:  Solving for Uy, Initial residual = 0.048927304, Final residual = 3.1100359e-06, No Iterations 2
DILUPBiCG:  Solving for Uz, Initial residual = 0.031570801, Final residual = 1.1826899e-06, No Iterations 2
DILUPBiCG:  Solving for h, Initial residual = 0.033878149, Final residual = 8.0819609e-06, No Iterations 5
GAMG:  Solving for p_rgh, Initial residual = 0.047072631, Final residual = 2.9150617e-05, No Iterations 7
time step continuity errors : sum local = 4.5189043e-05, global = 4.7880102e-06, cumulative = 5.3298049e-05
ExecutionTime = 14.6 s  ClockTime = 15 s
Inflow      : -4.6949178e-07 [kg/s]
Outflow     : -4.6232859e-07 [kg/s]
EnergyInflow  : -0.14169262 [W]
EnergyOutflow : -0.13943528 [W]
EnergyBalance : 0.0022573433 [W]
rho max/avg/min : 1.1764098 1.1679401 1.1592803
T   max/avg/min : 304.40159 302.16417 300.00031
P   max/avg/min : 101324.94 101319.23 101313.52
Prg max/avg/min : 101325 101324.96 101324.84
U   max/avg/min : 0.002009999 0.00043145779 -0.0011496785
Prg max-min : 0.1636358
 
sngrad(rho) :0.2750324 0.061973832 0.00016596437
 
Iteration Number = 32

DILUPBiCG:  Solving for Ux, Initial residual = 0.039466332, Final residual = 2.2530078e-06, No Iterations 2
DILUPBiCG:  Solving for Uy, Initial residual = 0.050605712, Final residual = 3.3446628e-06, No Iterations 2
DILUPBiCG:  Solving for Uz, Initial residual = 0.030408712, Final residual = 1.1435862e-06, No Iterations 2
DILUPBiCG:  Solving for h, Initial residual = 0.03307544, Final residual = 7.9998749e-06, No Iterations 5
GAMG:  Solving for p_rgh, Initial residual = 0.046203974, Final residual = 4.5872861e-05, No Iterations 6
time step continuity errors : sum local = 7.446497e-05, global = 3.6178984e-06, cumulative = 5.6915947e-05
ExecutionTime = 15.03 s  ClockTime = 15 s
Inflow      : -5.332433e-07 [kg/s]
Outflow     : -5.2783067e-07 [kg/s]
EnergyInflow  : -0.16093283 [W]
EnergyOutflow : -0.15918896 [W]
EnergyBalance : 0.0017438676 [W]
rho max/avg/min : 1.1764095 1.1676466 1.158867
T   max/avg/min : 304.51017 302.24041 300.00039
P   max/avg/min : 101324.94 101319.23 101313.52
Prg max/avg/min : 101325 101324.96 101324.83
U   max/avg/min : 0.0021972114 0.00046685552 -0.0013103188
Prg max-min : 0.16773345
 
sngrad(rho) :0.30798923 0.062224598 0.00023526192
 
Iteration Number = 33

DILUPBiCG:  Solving for Ux, Initial residual = 0.039832049, Final residual = 2.3246278e-06, No Iterations 2
DILUPBiCG:  Solving for Uy, Initial residual = 0.047634385, Final residual = 3.0962945e-06, No Iterations 2
DILUPBiCG:  Solving for Uz, Initial residual = 0.029407901, Final residual = 1.119343e-06, No Iterations 2
DILUPBiCG:  Solving for h, Initial residual = 0.032357905, Final residual = 7.9345433e-06, No Iterations 5
GAMG:  Solving for p_rgh, Initial residual = 0.044310414, Final residual = 3.0598907e-05, No Iterations 7
time step continuity errors : sum local = 5.1840199e-05, global = 4.5549326e-06, cumulative = 6.147088e-05
ExecutionTime = 15.49 s  ClockTime = 16 s
Inflow      : -6.0921786e-07 [kg/s]
Outflow     : -6.0240337e-07 [kg/s]
EnergyInflow  : -0.18386195 [W]
EnergyOutflow : -0.18167908 [W]
EnergyBalance : 0.0021828756 [W]
rho max/avg/min : 1.1764092 1.1673529 1.158455
T   max/avg/min : 304.61849 302.31674 300.00048
P   max/avg/min : 101324.94 101319.23 101313.52
Prg max/avg/min : 101325 101324.96 101324.83
U   max/avg/min : 0.0023931536 0.00050365494 -0.0014789735
Prg max-min : 0.17172809
 
sngrad(rho) :0.33948166 0.062742447 0.00031643011
 
Iteration Number = 34

DILUPBiCG:  Solving for Ux, Initial residual = 0.038065106, Final residual = 2.302321e-06, No Iterations 2
DILUPBiCG:  Solving for Uy, Initial residual = 0.046161086, Final residual = 3.3227113e-06, No Iterations 2
DILUPBiCG:  Solving for Uz, Initial residual = 0.028512011, Final residual = 1.0950624e-06, No Iterations 2
DILUPBiCG:  Solving for h, Initial residual = 0.03158964, Final residual = 7.7582602e-06, No Iterations 5
GAMG:  Solving for p_rgh, Initial residual = 0.04356811, Final residual = 4.2054072e-05, No Iterations 6
time step continuity errors : sum local = 7.442235e-05, global = 3.3861927e-06, cumulative = 6.4857072e-05
ExecutionTime = 15.91 s  ClockTime = 16 s
Inflow      : -6.866028e-07 [kg/s]
Outflow     : -6.8153682e-07 [kg/s]
EnergyInflow  : -0.20721672 [W]
EnergyOutflow : -0.20554404 [W]
EnergyBalance : 0.0016726812 [W]
rho max/avg/min : 1.1764088 1.1670592 1.1580443
T   max/avg/min : 304.72655 302.39312 300.00058
P   max/avg/min : 101324.94 101319.23 101313.52
Prg max/avg/min : 101325 101324.96 101324.83
U   max/avg/min : 0.0025971386 0.00054168115 -0.0016689184
Prg max-min : 0.17560534
 
sngrad(rho) :0.2411923 0.063244488 0.00041054719
 
Iteration Number = 35

DILUPBiCG:  Solving for Ux, Initial residual = 0.038699813, Final residual = 2.3055683e-06, No Iterations 2
DILUPBiCG:  Solving for Uy, Initial residual = 0.044372154, Final residual = 2.998475e-06, No Iterations 2
DILUPBiCG:  Solving for Uz, Initial residual = 0.027582415, Final residual = 1.0708679e-06, No Iterations 2
DILUPBiCG:  Solving for h, Initial residual = 0.030932559, Final residual = 7.7760418e-06, No Iterations 5
GAMG:  Solving for p_rgh, Initial residual = 0.043099914, Final residual = 2.6253434e-05, No Iterations 7
time step continuity errors : sum local = 4.8332289e-05, global = 4.897437e-06, cumulative = 6.9754509e-05
ExecutionTime = 16.36 s  ClockTime = 17 s
Inflow      : -7.7582263e-07 [kg/s]
Outflow     : -7.6849573e-07 [kg/s]
EnergyInflow  : -0.23414327 [W]
EnergyOutflow : -0.23177009 [W]
EnergyBalance : 0.0023731844 [W]
rho max/avg/min : 1.1764083 1.1667653 1.1576346
T   max/avg/min : 304.83438 302.46957 300.0007
P   max/avg/min : 101324.94 101319.23 101313.52
Prg max/avg/min : 101325 101324.96 101324.82
U   max/avg/min : 0.0028104983 0.00058119218 -0.0018671157
Prg max-min : 0.17957323
 
sngrad(rho) :0.26761468 0.063835591 0.00051872729
 
Iteration Number = 36

DILUPBiCG:  Solving for Ux, Initial residual = 0.036331627, Final residual = 2.1352762e-06, No Iterations 2
DILUPBiCG:  Solving for Uy, Initial residual = 0.046032334, Final residual = 3.1181392e-06, No Iterations 2
DILUPBiCG:  Solving for Uz, Initial residual = 0.026766948, Final residual = 1.0456068e-06, No Iterations 2
DILUPBiCG:  Solving for h, Initial residual = 0.030277289, Final residual = 7.6535147e-06, No Iterations 5
GAMG:  Solving for p_rgh, Initial residual = 0.043010591, Final residual = 3.7670095e-05, No Iterations 6
time step continuity errors : sum local = 7.2399835e-05, global = 3.4307272e-06, cumulative = 7.3185236e-05
ExecutionTime = 16.78 s  ClockTime = 17 s
Inflow      : -8.6765692e-07 [kg/s]
Outflow     : -8.6252431e-07 [kg/s]
EnergyInflow  : -0.26185886 [W]
EnergyOutflow : -0.2601271 [W]
EnergyBalance : 0.0017317566 [W]
rho max/avg/min : 1.1764077 1.1664715 1.1572261
T   max/avg/min : 304.94199 302.54606 300.00085
P   max/avg/min : 101324.94 101319.23 101313.52
Prg max/avg/min : 101325 101324.95 101324.82
U   max/avg/min : 0.0030304773 0.00062183686 -0.0020898948
Prg max-min : 0.18358132
 
sngrad(rho) :0.29457223 0.064447321 0.00064194825
 
Iteration Number = 37

DILUPBiCG:  Solving for Ux, Initial residual = 0.037208948, Final residual = 2.294051e-06, No Iterations 2
DILUPBiCG:  Solving for Uy, Initial residual = 0.044196732, Final residual = 2.994579e-06, No Iterations 2
DILUPBiCG:  Solving for Uz, Initial residual = 0.026009875, Final residual = 1.0292394e-06, No Iterations 2
DILUPBiCG:  Solving for h, Initial residual = 0.029666059, Final residual = 7.5950533e-06, No Iterations 5
GAMG:  Solving for p_rgh, Initial residual = 0.041465392, Final residual = 2.2284733e-05, No Iterations 7
time step continuity errors : sum local = 4.4499651e-05, global = 4.9365021e-06, cumulative = 7.8121738e-05
ExecutionTime = 17.24 s  ClockTime = 18 s
Inflow      : -9.7250777e-07 [kg/s]
Outflow     : -9.6512242e-07 [kg/s]
EnergyInflow  : -0.29350284 [W]
EnergyOutflow : -0.29106937 [W]
EnergyBalance : 0.0024334742 [W]
rho max/avg/min : 1.176407 1.1661776 1.1568186
T   max/avg/min : 305.0494 302.62261 300.00102
P   max/avg/min : 101324.94 101319.23 101313.52
Prg max/avg/min : 101325 101324.95 101324.82
U   max/avg/min : 0.0032613306 0.00066386315 -0.0023201048
Prg max-min : 0.1875273
 
sngrad(rho) :0.32183581 0.065410106 0.00078101785
 
Iteration Number = 38

DILUPBiCG:  Solving for Ux, Initial residual = 0.03448798, Final residual = 2.0681083e-06, No Iterations 2
DILUPBiCG:  Solving for Uy, Initial residual = 0.043104002, Final residual = 2.8318574e-06, No Iterations 2
DILUPBiCG:  Solving for Uz, Initial residual = 0.025266965, Final residual = 1.0058125e-06, No Iterations 2
DILUPBiCG:  Solving for h, Initial residual = 0.029082931, Final residual = 7.5365728e-06, No Iterations 5
GAMG:  Solving for p_rgh, Initial residual = 0.041223051, Final residual = 3.6246027e-05, No Iterations 6
time step continuity errors : sum local = 7.5300119e-05, global = 3.3028053e-06, cumulative = 8.1424544e-05
ExecutionTime = 17.68 s  ClockTime = 18 s
Inflow      : -1.0791698e-06 [kg/s]
Outflow     : -1.0742286e-06 [kg/s]
EnergyInflow  : -0.32569344 [W]
EnergyOutflow : -0.32397269 [W]
EnergyBalance : 0.0017207553 [W]
rho max/avg/min : 1.1764063 1.1658838 1.1564121
T   max/avg/min : 305.1566 302.69919 300.00122
P   max/avg/min : 101324.94 101319.23 101313.52
Prg max/avg/min : 101325 101324.95 101324.81
U   max/avg/min : 0.0034989795 0.0007070045 -0.0025758105
Prg max-min : 0.1915503
 
sngrad(rho) :0.34997503 0.065929443 0.00093682391
 
Iteration Number = 39

DILUPBiCG:  Solving for Ux, Initial residual = 0.035804912, Final residual = 2.16457e-06, No Iterations 2
DILUPBiCG:  Solving for Uy, Initial residual = 0.042213828, Final residual = 2.78096e-06, No Iterations 2
DILUPBiCG:  Solving for Uz, Initial residual = 0.024590205, Final residual = 9.9021052e-07, No Iterations 2
DILUPBiCG:  Solving for h, Initial residual = 0.02848073, Final residual = 7.4498244e-06, No Iterations 5
GAMG:  Solving for p_rgh, Initial residual = 0.038053127, Final residual = 3.587633e-05, No Iterations 6
time step continuity errors : sum local = 7.7313971e-05, global = 2.5620239e-06, cumulative = 8.3986568e-05
ExecutionTime = 18.1 s  ClockTime = 19 s
Inflow      : -1.2001096e-06 [kg/s]
Outflow     : -1.1962767e-06 [kg/s]
EnergyInflow  : -0.36219309 [W]
EnergyOutflow : -0.3607813 [W]
EnergyBalance : 0.0014117913 [W]
rho max/avg/min : 1.1764053 1.1655899 1.1560066
T   max/avg/min : 305.26362 302.77583 300.00145
P   max/avg/min : 101324.94 101319.23 101313.52
Prg max/avg/min : 101325.01 101324.95 101324.81
U   max/avg/min : 0.0037543054 0.00075106311 -0.002847982
Prg max-min : 0.1953254
 
sngrad(rho) :0.378932 0.067044079 0.0011096639
 
Iteration Number = 40

DILUPBiCG:  Solving for Ux, Initial residual = 0.033864211, Final residual = 2.0758801e-06, No Iterations 2
DILUPBiCG:  Solving for Uy, Initial residual = 0.041286717, Final residual = 2.8364395e-06, No Iterations 2
DILUPBiCG:  Solving for Uz, Initial residual = 0.023973334, Final residual = 9.7591129e-07, No Iterations 2
DILUPBiCG:  Solving for h, Initial residual = 0.027957149, Final residual = 7.4398583e-06, No Iterations 5
GAMG:  Solving for p_rgh, Initial residual = 0.03740647, Final residual = 2.363523e-05, No Iterations 7
time step continuity errors : sum local = 5.287313e-05, global = 3.6909753e-06, cumulative = 8.7677543e-05
ExecutionTime = 18.58 s  ClockTime = 19 s
Inflow      : -1.3306597e-06 [kg/s]
Outflow     : -1.3251378e-06 [kg/s]
EnergyInflow  : -0.40159311 [W]
EnergyOutflow : -0.39964301 [W]
EnergyBalance : 0.0019500968 [W]
rho max/avg/min : 1.1764043 1.1652961 1.155602
T   max/avg/min : 305.37045 302.8525 300.00172
P   max/avg/min : 101324.94 101319.23 101313.52
Prg max/avg/min : 101325.01 101324.95 101324.81
U   max/avg/min : 0.0040213272 0.00079649744 -0.0031351181
Prg max-min : 0.19946974
 
sngrad(rho) :0.40827032 0.068119287 0.0012999232
 
Iteration Number = 41

DILUPBiCG:  Solving for Ux, Initial residual = 0.033320918, Final residual = 2.0839835e-06, No Iterations 2
DILUPBiCG:  Solving for Uy, Initial residual = 0.040918203, Final residual = 2.8994271e-06, No Iterations 2
DILUPBiCG:  Solving for Uz, Initial residual = 0.023316677, Final residual = 9.5724772e-07, No Iterations 2
DILUPBiCG:  Solving for h, Initial residual = 0.027426625, Final residual = 7.3352872e-06, No Iterations 5
GAMG:  Solving for p_rgh, Initial residual = 0.036123548, Final residual = 3.041888e-05, No Iterations 6
time step continuity errors : sum local = 7.0399387e-05, global = 2.3898453e-06, cumulative = 9.0067388e-05
ExecutionTime = 19.01 s  ClockTime = 19 s
Inflow      : -1.4664956e-06 [kg/s]
Outflow     : -1.4629202e-06 [kg/s]
EnergyInflow  : -0.44258836 [W]
EnergyOutflow : -0.44119481 [W]
EnergyBalance : 0.0013935504 [W]
rho max/avg/min : 1.176403 1.1650023 1.1551983
T   max/avg/min : 305.47712 302.9292 300.00204
P   max/avg/min : 101324.94 101319.23 101313.52
Prg max/avg/min : 101325.01 101324.95 101324.8
U   max/avg/min : 0.0042979668 0.00084282317 -0.0034499493
Prg max-min : 0.20296244
 
sngrad(rho) :0.43869252 0.068898588 0.0015077288
 
Iteration Number = 42

DILUPBiCG:  Solving for Ux, Initial residual = 0.033722599, Final residual = 2.0799513e-06, No Iterations 2
DILUPBiCG:  Solving for Uy, Initial residual = 0.03984885, Final residual = 2.6890203e-06, No Iterations 2
DILUPBiCG:  Solving for Uz, Initial residual = 0.022716149, Final residual = 9.4430016e-07, No Iterations 2
DILUPBiCG:  Solving for h, Initial residual = 0.026933232, Final residual = 7.3461721e-06, No Iterations 5
GAMG:  Solving for p_rgh, Initial residual = 0.0366103, Final residual = 3.2190432e-05, No Iterations 6
time step continuity errors : sum local = 7.7079894e-05, global = 3.1833765e-06, cumulative = 9.3250765e-05
ExecutionTime = 19.45 s  ClockTime = 20 s
Inflow      : -1.6169998e-06 [kg/s]
Outflow     : -1.6122372e-06 [kg/s]
EnergyInflow  : -0.48801053 [W]
EnergyOutflow : -0.48622726 [W]
EnergyBalance : 0.001783268 [W]
rho max/avg/min : 1.1764016 1.1647085 1.1547954
T   max/avg/min : 305.58363 303.00592 300.00238
P   max/avg/min : 101324.94 101319.23 101313.53
Prg max/avg/min : 101325.01 101324.95 101324.8
U   max/avg/min : 0.0045800043 0.00088996703 -0.0037767806
Prg max-min : 0.2070702
 
sngrad(rho) :0.4695374 0.069532139 0.0017330853
 
Iteration Number = 43

DILUPBiCG:  Solving for Ux, Initial residual = 0.031946347, Final residual = 2.0001834e-06, No Iterations 2
DILUPBiCG:  Solving for Uy, Initial residual = 0.040959358, Final residual = 2.7402201e-06, No Iterations 2
DILUPBiCG:  Solving for Uz, Initial residual = 0.022217741, Final residual = 9.3638638e-07, No Iterations 2
DILUPBiCG:  Solving for h, Initial residual = 0.026442019, Final residual = 7.2834287e-06, No Iterations 5
GAMG:  Solving for p_rgh, Initial residual = 0.035941667, Final residual = 1.5206343e-05, No Iterations 7
time step continuity errors : sum local = 3.7663106e-05, global = 4.5193821e-06, cumulative = 9.7770147e-05
ExecutionTime = 19.91 s  ClockTime = 20 s
Inflow      : -1.7758526e-06 [kg/s]
Outflow     : -1.7690913e-06 [kg/s]
EnergyInflow  : -0.53595232 [W]
EnergyOutflow : -0.53352985 [W]
EnergyBalance : 0.0024224706 [W]
rho max/avg/min : 1.1763999 1.1644148 1.1543933
T   max/avg/min : 305.68999 303.08269 300.00269
P   max/avg/min : 101324.94 101319.23 101313.53
Prg max/avg/min : 101325.01 101324.95 101324.8
U   max/avg/min : 0.0048739641 0.00093851539 -0.0041174768
Prg max-min : 0.21127667
 
sngrad(rho) :0.50127662 0.07130403 0.0019749611
 
Iteration Number = 44

DILUPBiCG:  Solving for Ux, Initial residual = 0.031422098, Final residual = 1.9469773e-06, No Iterations 2
DILUPBiCG:  Solving for Uy, Initial residual = 0.040473956, Final residual = 2.7110464e-06, No Iterations 2
DILUPBiCG:  Solving for Uz, Initial residual = 0.021607371, Final residual = 9.1998627e-07, No Iterations 2
DILUPBiCG:  Solving for h, Initial residual = 0.025991636, Final residual = 7.6136924e-06, No Iterations 5
GAMG:  Solving for p_rgh, Initial residual = 0.034678467, Final residual = 3.152446e-05, No Iterations 6
time step continuity errors : sum local = 8.0675865e-05, global = 2.4083365e-06, cumulative = 0.00010017848
ExecutionTime = 20.34 s  ClockTime = 21 s
Inflow      : -1.9336576e-06 [kg/s]
Outflow     : -1.9300546e-06 [kg/s]
EnergyInflow  : -0.58357787 [W]
EnergyOutflow : -0.5820702 [W]
EnergyBalance : 0.0015076734 [W]
rho max/avg/min : 1.176398 1.1641213 1.1539921
T   max/avg/min : 305.7962 303.15946 300.00302
P   max/avg/min : 101324.94 101319.23 101313.53
Prg max/avg/min : 101325.01 101324.94 101324.79
U   max/avg/min : 0.0051759199 0.00098817694 -0.0044847999
Prg max-min : 0.21474533
 
sngrad(rho) :0.53386238 0.072311261 0.002232642
 
Iteration Number = 45

DILUPBiCG:  Solving for Ux, Initial residual = 0.031378915, Final residual = 1.9631283e-06, No Iterations 2
DILUPBiCG:  Solving for Uy, Initial residual = 0.039290373, Final residual = 2.5453367e-06, No Iterations 2
DILUPBiCG:  Solving for Uz, Initial residual = 0.021064938, Final residual = 9.0965755e-07, No Iterations 2
DILUPBiCG:  Solving for h, Initial residual = 0.025545029, Final residual = 7.4853013e-06, No Iterations 5
GAMG:  Solving for p_rgh, Initial residual = 0.034186016, Final residual = 3.0713422e-05, No Iterations 6
time step continuity errors : sum local = 8.1202197e-05, global = 1.8223378e-06, cumulative = 0.00010200082
ExecutionTime = 20.76 s  ClockTime = 21 s
Inflow      : -2.104227e-06 [kg/s]
Outflow     : -2.1015007e-06 [kg/s]
EnergyInflow  : -0.63505572 [W]
EnergyOutflow : -0.63377271 [W]
EnergyBalance : 0.0012830104 [W]
rho max/avg/min : 1.1763958 1.1638277 1.1535916
T   max/avg/min : 305.90227 303.23627 300.00336
P   max/avg/min : 101324.94 101319.23 101313.53
Prg max/avg/min : 101325.01 101324.94 101324.79
U   max/avg/min : 0.0054887264 0.0010388044 -0.0048611663
Prg max-min : 0.21890689
 
sngrad(rho) :0.43355252 0.071898077 0.0025045555
 
Iteration Number = 46

DILUPBiCG:  Solving for Ux, Initial residual = 0.030464802, Final residual = 1.9018129e-06, No Iterations 2
DILUPBiCG:  Solving for Uy, Initial residual = 0.039056392, Final residual = 2.6306356e-06, No Iterations 2
DILUPBiCG:  Solving for Uz, Initial residual = 0.020569289, Final residual = 8.9798053e-07, No Iterations 2
DILUPBiCG:  Solving for h, Initial residual = 0.025155763, Final residual = 7.7227178e-06, No Iterations 5
GAMG:  Solving for p_rgh, Initial residual = 0.035878911, Final residual = 3.2496232e-05, No Iterations 6
time step continuity errors : sum local = 8.8636313e-05, global = 1.8971699e-06, cumulative = 0.00010389799
ExecutionTime = 21.18 s  ClockTime = 22 s
Inflow      : -2.2817138e-06 [kg/s]
Outflow     : -2.2788755e-06 [kg/s]
EnergyInflow  : -0.68862123 [W]
EnergyOutflow : -0.68726359 [W]
EnergyBalance : 0.001357631 [W]
rho max/avg/min : 1.1763932 1.1635343 1.1531919
T   max/avg/min : 306.0082 303.31309 300.00373
P   max/avg/min : 101324.94 101319.23 101313.53
Prg max/avg/min : 101325.01 101324.94 101324.79
U   max/avg/min : 0.0058084616 0.001090514 -0.0052544587
Prg max-min : 0.22244722
 
sngrad(rho) :0.46799322 0.073668726 0.0027897502
 
Iteration Number = 47

DILUPBiCG:  Solving for Ux, Initial residual = 0.030304218, Final residual = 1.9340472e-06, No Iterations 2
DILUPBiCG:  Solving for Uy, Initial residual = 0.038018181, Final residual = 2.5216448e-06, No Iterations 2
DILUPBiCG:  Solving for Uz, Initial residual = 0.020043941, Final residual = 8.8629581e-07, No Iterations 2
DILUPBiCG:  Solving for h, Initial residual = 0.02474499, Final residual = 7.6640078e-06, No Iterations 5
GAMG:  Solving for p_rgh, Initial residual = 0.034729836, Final residual = 3.0564772e-05, No Iterations 6
time step continuity errors : sum local = 8.6017078e-05, global = 1.9781013e-07, cumulative = 0.0001040958
ExecutionTime = 21.65 s  ClockTime = 22 s
Inflow      : -2.4621781e-06 [kg/s]
Outflow     : -2.4618821e-06 [kg/s]
EnergyInflow  : -0.74308534 [W]
EnergyOutflow : -0.74245383 [W]
EnergyBalance : 0.00063150956 [W]
rho max/avg/min : 1.1763903 1.1632409 1.1527929
T   max/avg/min : 306.11401 303.38994 300.00411
P   max/avg/min : 101324.94 101319.24 101313.53
Prg max/avg/min : 101325.01 101324.94 101324.78
U   max/avg/min : 0.0061379105 0.0011435482 -0.0056580806
Prg max-min : 0.22652923
 
sngrad(rho) :0.50071916 0.075517982 0.0030865025
 
Iteration Number = 48

DILUPBiCG:  Solving for Ux, Initial residual = 0.029928697, Final residual = 1.8963828e-06, No Iterations 2
DILUPBiCG:  Solving for Uy, Initial residual = 0.038013134, Final residual = 2.5853711e-06, No Iterations 2
DILUPBiCG:  Solving for Uz, Initial residual = 0.019564435, Final residual = 8.730319e-07, No Iterations 2
DILUPBiCG:  Solving for h, Initial residual = 0.024365681, Final residual = 8.3146149e-06, No Iterations 5
GAMG:  Solving for p_rgh, Initial residual = 0.034986416, Final residual = 2.8258303e-05, No Iterations 6
time step continuity errors : sum local = 8.1962736e-05, global = 2.9727621e-06, cumulative = 0.00010706856
ExecutionTime = 22.12 s  ClockTime = 23 s
Inflow      : -2.6553203e-06 [kg/s]
Outflow     : -2.6508729e-06 [kg/s]
EnergyInflow  : -0.80137568 [W]
EnergyOutflow : -0.79944348 [W]
EnergyBalance : 0.0019322017 [W]
rho max/avg/min : 1.1763869 1.1629477 1.1523946
T   max/avg/min : 306.21969 303.46678 300.0045
P   max/avg/min : 101324.94 101319.24 101313.53
Prg max/avg/min : 101325.01 101324.94 101324.78
U   max/avg/min : 0.0064743807 0.0011976387 -0.0060810362
Prg max-min : 0.23033202
 
sngrad(rho) :0.53072582 0.077108816 0.0033932983
 
Iteration Number = 49

DILUPBiCG:  Solving for Ux, Initial residual = 0.029909705, Final residual = 1.9702264e-06, No Iterations 2
DILUPBiCG:  Solving for Uy, Initial residual = 0.038721959, Final residual = 2.5841386e-06, No Iterations 2
DILUPBiCG:  Solving for Uz, Initial residual = 0.019132761, Final residual = 8.6430526e-07, No Iterations 2
DILUPBiCG:  Solving for h, Initial residual = 0.023975264, Final residual = 8.2351948e-06, No Iterations 5
GAMG:  Solving for p_rgh, Initial residual = 0.032710955, Final residual = 3.0851216e-05, No Iterations 6
time step continuity errors : sum local = 9.2051564e-05, global = -1.7594107e-06, cumulative = 0.00010530915
ExecutionTime = 22.58 s  ClockTime = 23 s
Inflow      : -2.840962e-06 [kg/s]
Outflow     : -2.8435942e-06 [kg/s]
EnergyInflow  : -0.85740234 [W]
EnergyOutflow : -0.85755552 [W]
EnergyBalance : -0.00015317848 [W]
rho max/avg/min : 1.176383 1.1626546 1.151997
T   max/avg/min : 306.32526 303.54365 300.0049
P   max/avg/min : 101324.94 101319.24 101313.53
Prg max/avg/min : 101325.01 101324.94 101324.78
U   max/avg/min : 0.0068234587 0.0012531723 -0.0065091115
Prg max-min : 0.23436851
 
sngrad(rho) :0.5629524 0.07831753 0.0037092402
 
Iteration Number = 50

DILUPBiCG:  Solving for Ux, Initial residual = 0.02863914, Final residual = 1.8236185e-06, No Iterations 2
DILUPBiCG:  Solving for Uy, Initial residual = 0.037508077, Final residual = 2.4367925e-06, No Iterations 2
DILUPBiCG:  Solving for Uz, Initial residual = 0.018629672, Final residual = 8.4826155e-07, No Iterations 2
DILUPBiCG:  Solving for h, Initial residual = 0.02362784, Final residual = 8.369527e-06, No Iterations 5
GAMG:  Solving for p_rgh, Initial residual = 0.03320626, Final residual = 2.4068186e-05, No Iterations 6
time step continuity errors : sum local = 7.3815567e-05, global = 3.1282303e-06, cumulative = 0.00010843738
ExecutionTime = 23.02 s  ClockTime = 23 s
Inflow      : -3.04795e-06 [kg/s]
Outflow     : -3.04327e-06 [kg/s]
EnergyInflow  : -0.91987132 [W]
EnergyOutflow : -0.91776334 [W]
EnergyBalance : 0.002107984 [W]
rho max/avg/min : 1.1763787 1.1623616 1.1516001
T   max/avg/min : 306.43072 303.62052 300.00531
P   max/avg/min : 101324.94 101319.24 101313.53
Prg max/avg/min : 101325.01 101324.94 101324.77
U   max/avg/min : 0.0071766008 0.0013096156 -0.0069574991
Prg max-min : 0.23795889
 
sngrad(rho) :0.59304156 0.080089233 0.0040328772
 
Iteration Number = 51

DILUPBiCG:  Solving for Ux, Initial residual = 0.029281114, Final residual = 1.9215378e-06, No Iterations 2
DILUPBiCG:  Solving for Uy, Initial residual = 0.038020295, Final residual = 2.5083175e-06, No Iterations 2
DILUPBiCG:  Solving for Uz, Initial residual = 0.018258568, Final residual = 8.407234e-07, No Iterations 2
DILUPBiCG:  Solving for h, Initial residual = 0.023264712, Final residual = 8.4465074e-06, No Iterations 5
GAMG:  Solving for p_rgh, Initial residual = 0.032677894, Final residual = 2.955231e-05, No Iterations 6
time step continuity errors : sum local = 9.3164354e-05, global = 5.1833462e-07, cumulative = 0.00010895572
ExecutionTime = 23.46 s  ClockTime = 24 s
Inflow      : -3.2479638e-06 [kg/s]
Outflow     : -3.2471884e-06 [kg/s]
EnergyInflow  : -0.98023548 [W]
EnergyOutflow : -0.9792467 [W]
EnergyBalance : 0.00098878221 [W]
rho max/avg/min : 1.1763737 1.1620687 1.1512038
T   max/avg/min : 306.53607 303.69741 300.00573
P   max/avg/min : 101324.94 101319.24 101313.53
Prg max/avg/min : 101325.01 101324.94 101324.77
U   max/avg/min : 0.0075395577 0.0013672374 -0.0074149451
Prg max-min : 0.24193698
 
sngrad(rho) :0.62571506 0.081420665 0.0043629464
 
Iteration Number = 52

DILUPBiCG:  Solving for Ux, Initial residual = 0.028971875, Final residual = 1.8354358e-06, No Iterations 2
DILUPBiCG:  Solving for Uy, Initial residual = 0.037392227, Final residual = 2.4456854e-06, No Iterations 2
DILUPBiCG:  Solving for Uz, Initial residual = 0.017804069, Final residual = 8.259505e-07, No Iterations 2
DILUPBiCG:  Solving for h, Initial residual = 0.022913617, Final residual = 8.6482251e-06, No Iterations 5
GAMG:  Solving for p_rgh, Initial residual = 0.031997643, Final residual = 1.6909812e-05, No Iterations 6
time step continuity errors : sum local = 5.4711516e-05, global = -1.2845305e-06, cumulative = 0.00010767119
ExecutionTime = 23.92 s  ClockTime = 24 s
Inflow      : -3.4797292e-06 [kg/s]
Outflow     : -3.481651e-06 [kg/s]
EnergyInflow  : -1.0501823 [W]
EnergyOutflow : -1.0499505 [W]
EnergyBalance : 0.00023175553 [W]
rho max/avg/min : 1.1763681 1.1617761 1.1508082
T   max/avg/min : 306.64133 303.77429 300.00616
P   max/avg/min : 101324.94 101319.24 101313.53
Prg max/avg/min : 101325.01 101324.94 101324.77
U   max/avg/min : 0.007909537 0.0014246083 -0.0079077178
Prg max-min : 0.24559119
 
sngrad(rho) :0.65929859 0.082825471 0.0046977405
 
Iteration Number = 53

DILUPBiCG:  Solving for Ux, Initial residual = 0.028235846, Final residual = 1.815649e-06, No Iterations 2
DILUPBiCG:  Solving for Uy, Initial residual = 0.037391614, Final residual = 2.4709155e-06, No Iterations 2
DILUPBiCG:  Solving for Uz, Initial residual = 0.017561783, Final residual = 8.2652139e-07, No Iterations 2
DILUPBiCG:  Solving for h, Initial residual = 0.02259326, Final residual = 8.819985e-06, No Iterations 5
GAMG:  Solving for p_rgh, Initial residual = 0.032621383, Final residual = 3.1038022e-05, No Iterations 5
time step continuity errors : sum local = 0.00010301441, global = 1.7689772e-06, cumulative = 0.00010944016
ExecutionTime = 24.35 s  ClockTime = 25 s
Inflow      : -3.7239707e-06 [kg/s]
Outflow     : -3.7213242e-06 [kg/s]
EnergyInflow  : -1.1238944 [W]
EnergyOutflow : -1.1222239 [W]
EnergyBalance : 0.0016704108 [W]
rho max/avg/min : 1.1763618 1.1614835 1.1504133
T   max/avg/min : 306.7465 303.85118 300.00659
P   max/avg/min : 101324.94 101319.24 101313.53
Prg max/avg/min : 101325.01 101324.93 101324.76
U   max/avg/min : 0.0082853204 0.0014817956 -0.0084198332
Prg max-min : 0.24932047
 
sngrad(rho) :0.69223935 0.084230051 0.0050357641
 
Iteration Number = 54

DILUPBiCG:  Solving for Ux, Initial residual = 0.027861268, Final residual = 1.7784419e-06, No Iterations 2
DILUPBiCG:  Solving for Uy, Initial residual = 0.037079793, Final residual = 2.3767336e-06, No Iterations 2
DILUPBiCG:  Solving for Uz, Initial residual = 0.017238376, Final residual = 8.1965528e-07, No Iterations 2
DILUPBiCG:  Solving for h, Initial residual = 0.022289274, Final residual = 9.0146277e-06, No Iterations 5
GAMG:  Solving for p_rgh, Initial residual = 0.034035119, Final residual = 3.2271576e-05, No Iterations 6
time step continuity errors : sum local = 0.0001097656, global = -9.0966364e-07, cumulative = 0.0001085305
ExecutionTime = 24.8 s  ClockTime = 25 s
Inflow      : -3.9622374e-06 [kg/s]
Outflow     : -3.9635984e-06 [kg/s]
EnergyInflow  : -1.1958033 [W]
EnergyOutflow : -1.195277 [W]
EnergyBalance : 0.00052627311 [W]
rho max/avg/min : 1.1763546 1.1611912 1.150019
T   max/avg/min : 306.85159 303.92806 300.00703
P   max/avg/min : 101324.94 101319.24 101313.53
Prg max/avg/min : 101325.01 101324.93 101324.76
U   max/avg/min : 0.0086708718 0.0015403913 -0.0089470693
Prg max-min : 0.2535249
 
sngrad(rho) :0.69508394 0.085004826 0.0053748196
 
Iteration Number = 55

DILUPBiCG:  Solving for Ux, Initial residual = 0.028801928, Final residual = 1.8771573e-06, No Iterations 2
DILUPBiCG:  Solving for Uy, Initial residual = 0.037385666, Final residual = 2.3762961e-06, No Iterations 2
DILUPBiCG:  Solving for Uz, Initial residual = 0.016808601, Final residual = 8.0530721e-07, No Iterations 2
DILUPBiCG:  Solving for h, Initial residual = 0.02197698, Final residual = 9.2386487e-06, No Iterations 5
GAMG:  Solving for p_rgh, Initial residual = 0.033131156, Final residual = 3.1081402e-05, No Iterations 5
time step continuity errors : sum local = 0.00010835037, global = 4.6572177e-06, cumulative = 0.00011318772
ExecutionTime = 25.21 s  ClockTime = 26 s
Inflow      : -4.2208321e-06 [kg/s]
Outflow     : -4.2138646e-06 [kg/s]
EnergyInflow  : -1.2738471 [W]
EnergyOutflow : -1.270738 [W]
EnergyBalance : 0.0031091456 [W]
rho max/avg/min : 1.1763466 1.1608989 1.1496252
T   max/avg/min : 306.95658 304.00496 300.00746
P   max/avg/min : 101324.94 101319.24 101313.53
Prg max/avg/min : 101325.02 101324.93 101324.76
U   max/avg/min : 0.0090626542 0.0015999233 -0.0094753519
Prg max-min : 0.2569726
 
sngrad(rho) :0.73180478 0.087191247 0.0057129204
 
Iteration Number = 56

DILUPBiCG:  Solving for Ux, Initial residual = 0.026956303, Final residual = 1.7216613e-06, No Iterations 2
DILUPBiCG:  Solving for Uy, Initial residual = 0.037822244, Final residual = 2.5610391e-06, No Iterations 2
DILUPBiCG:  Solving for Uz, Initial residual = 0.016480367, Final residual = 7.9607049e-07, No Iterations 2
DILUPBiCG:  Solving for h, Initial residual = 0.021676309, Final residual = 9.5171961e-06, No Iterations 5
GAMG:  Solving for p_rgh, Initial residual = 0.032731089, Final residual = 3.0670469e-05, No Iterations 6
time step continuity errors : sum local = 0.00010934393, global = -4.5115915e-06, cumulative = 0.00010867613
ExecutionTime = 25.64 s  ClockTime = 26 s
Inflow      : -4.455763e-06 [kg/s]
Outflow     : -4.4625127e-06 [kg/s]
EnergyInflow  : -1.3447493 [W]
EnergyOutflow : -1.3457055 [W]
EnergyBalance : -0.00095621604 [W]
rho max/avg/min : 1.1763377 1.1606069 1.1492321
T   max/avg/min : 307.06149 304.08184 300.00788
P   max/avg/min : 101324.94 101319.24 101313.53
Prg max/avg/min : 101325.02 101324.93 101324.76
U   max/avg/min : 0.0094657602 0.0016613506 -0.010023382
Prg max-min : 0.26103163
 
sngrad(rho) :0.76874407 0.088709186 0.0060478445
 
Iteration Number = 57

DILUPBiCG:  Solving for Ux, Initial residual = 0.028162091, Final residual = 1.8854228e-06, No Iterations 2
DILUPBiCG:  Solving for Uy, Initial residual = 0.035530532, Final residual = 2.2586514e-06, No Iterations 2
DILUPBiCG:  Solving for Uz, Initial residual = 0.016031241, Final residual = 7.7798572e-07, No Iterations 2
DILUPBiCG:  Solving for h, Initial residual = 0.021389788, Final residual = 1.0043561e-05, No Iterations 5
GAMG:  Solving for p_rgh, Initial residual = 0.031995136, Final residual = 2.7042759e-05, No Iterations 5
time step continuity errors : sum local = 9.8684472e-05, global = 1.9481e-06, cumulative = 0.00011062423
ExecutionTime = 26.06 s  ClockTime = 27 s
Inflow      : -4.7226803e-06 [kg/s]
Outflow     : -4.7197658e-06 [kg/s]
EnergyInflow  : -1.4253049 [W]
EnergyOutflow : -1.4232666 [W]
EnergyBalance : 0.0020383532 [W]
rho max/avg/min : 1.1763277 1.1603149 1.1488396
T   max/avg/min : 307.16633 304.15873 300.0083
P   max/avg/min : 101324.94 101319.24 101313.54
Prg max/avg/min : 101325.02 101324.93 101324.75
U   max/avg/min : 0.0098860794 0.0017233717 -0.010574813
Prg max-min : 0.26456244
 
sngrad(rho) :0.80613159 0.090295352 0.0063784719
 
Iteration Number = 58

DILUPBiCG:  Solving for Ux, Initial residual = 0.026636442, Final residual = 1.6876021e-06, No Iterations 2
DILUPBiCG:  Solving for Uy, Initial residual = 0.037889208, Final residual = 2.5140926e-06, No Iterations 2
DILUPBiCG:  Solving for Uz, Initial residual = 0.015771305, Final residual = 7.7197517e-07, No Iterations 2
DILUPBiCG:  Solving for h, Initial residual = 0.021109652, Final residual = 1.040853e-05, No Iterations 5
GAMG:  Solving for p_rgh, Initial residual = 0.031597806, Final residual = 2.9299662e-05, No Iterations 6
time step continuity errors : sum local = 0.00010926632, global = -1.4940545e-06, cumulative = 0.00010913017
ExecutionTime = 26.52 s  ClockTime = 27 s
Inflow      : -4.9680856e-06 [kg/s]
Outflow     : -4.9703209e-06 [kg/s]
EnergyInflow  : -1.4993682 [W]
EnergyOutflow : -1.4988022 [W]
EnergyBalance : 0.00056609577 [W]
rho max/avg/min : 1.1763166 1.1600233 1.1484478
T   max/avg/min : 307.27108 304.23561 300.00872
P   max/avg/min : 101324.94 101319.24 101313.54
Prg max/avg/min : 101325.02 101324.93 101324.75
U   max/avg/min : 0.010321095 0.0017868778 -0.011138126
Prg max-min : 0.26869571
 
sngrad(rho) :0.84305008 0.091892827 0.0067029707
 
Iteration Number = 59

DILUPBiCG:  Solving for Ux, Initial residual = 0.028022559, Final residual = 1.880546e-06, No Iterations 2
DILUPBiCG:  Solving for Uy, Initial residual = 0.03434379, Final residual = 2.1769028e-06, No Iterations 2
DILUPBiCG:  Solving for Uz, Initial residual = 0.015371563, Final residual = 7.5501999e-07, No Iterations 2
DILUPBiCG:  Solving for h, Initial residual = 0.02086596, Final residual = 1.1000609e-05, No Iterations 5
GAMG:  Solving for p_rgh, Initial residual = 0.031356337, Final residual = 2.7911523e-05, No Iterations 5
time step continuity errors : sum local = 0.00010641548, global = 4.1894015e-06, cumulative = 0.00011331957
ExecutionTime = 27 s  ClockTime = 27 s
Inflow      : -5.2360922e-06 [kg/s]
Outflow     : -5.2298246e-06 [kg/s]
EnergyInflow  : -1.5802526 [W]
EnergyOutflow : -1.5770325 [W]
EnergyBalance : 0.0032200898 [W]
rho max/avg/min : 1.1763043 1.1597317 1.1480564
T   max/avg/min : 307.37574 304.31249 300.00912
P   max/avg/min : 101324.94 101319.24 101313.54
Prg max/avg/min : 101325.02 101324.93 101324.75
U   max/avg/min : 0.010764375 0.0018511746 -0.011708387
Prg max-min : 0.27241943
 
sngrad(rho) :0.88079716 0.093549272 0.0070195699
 
Iteration Number = 60

DILUPBiCG:  Solving for Ux, Initial residual = 0.026379825, Final residual = 1.6792574e-06, No Iterations 2
DILUPBiCG:  Solving for Uy, Initial residual = 0.038677097, Final residual = 2.5803854e-06, No Iterations 2
DILUPBiCG:  Solving for Uz, Initial residual = 0.015111008, Final residual = 7.4755094e-07, No Iterations 2
DILUPBiCG:  Solving for h, Initial residual = 0.020593671, Final residual = 1.1463853e-05, No Iterations 5
GAMG:  Solving for p_rgh, Initial residual = 0.03117556, Final residual = 2.5257836e-05, No Iterations 6
time step continuity errors : sum local = 9.8283885e-05, global = -3.5611059e-06, cumulative = 0.00010975847
ExecutionTime = 27.5 s  ClockTime = 28 s
Inflow      : -5.4822378e-06 [kg/s]
Outflow     : -5.4875655e-06 [kg/s]
EnergyInflow  : -1.6545394 [W]
EnergyOutflow : -1.6547301 [W]
EnergyBalance : -0.00019070809 [W]
rho max/avg/min : 1.1762907 1.1594404 1.1476656
T   max/avg/min : 307.48035 304.38935 300.00951
P   max/avg/min : 101324.94 101319.24 101313.54
Prg max/avg/min : 101325.02 101324.93 101324.74
U   max/avg/min : 0.011216224 0.0019170855 -0.012293772
Prg max-min : 0.27620793
 
sngrad(rho) :0.91839751 0.095220406 0.0073271102
 
Iteration Number = 61

DILUPBiCG:  Solving for Ux, Initial residual = 0.027824638, Final residual = 1.8937118e-06, No Iterations 2
DILUPBiCG:  Solving for Uy, Initial residual = 0.034224954, Final residual = 2.1315246e-06, No Iterations 2
DILUPBiCG:  Solving for Uz, Initial residual = 0.014724045, Final residual = 7.2969741e-07, No Iterations 2
DILUPBiCG:  Solving for h, Initial residual = 0.020334849, Final residual = 1.2884893e-05, No Iterations 5
GAMG:  Solving for p_rgh, Initial residual = 0.030884096, Final residual = 2.4539207e-05, No Iterations 5
time step continuity errors : sum local = 9.7465129e-05, global = 2.207797e-06, cumulative = 0.00011196627
ExecutionTime = 27.94 s  ClockTime = 28 s
Inflow      : -5.7571796e-06 [kg/s]
Outflow     : -5.7538765e-06 [kg/s]
EnergyInflow  : -1.7375168 [W]
EnergyOutflow : -1.7350072 [W]
EnergyBalance : 0.0025096276 [W]
rho max/avg/min : 1.1762757 1.1591492 1.1472753
T   max/avg/min : 307.58489 304.46623 300.00989
P   max/avg/min : 101324.94 101319.24 101313.54
Prg max/avg/min : 101325.02 101324.93 101324.74
U   max/avg/min : 0.011676232 0.001983522 -0.012881567
Prg max-min : 0.27988322
 
sngrad(rho) :0.92346128 0.096092626 0.0076241353
 
Iteration Number = 62

DILUPBiCG:  Solving for Ux, Initial residual = 0.026063886, Final residual = 1.671065e-06, No Iterations 2
DILUPBiCG:  Solving for Uy, Initial residual = 0.038555601, Final residual = 2.6336515e-06, No Iterations 2
DILUPBiCG:  Solving for Uz, Initial residual = 0.014486082, Final residual = 7.2368796e-07, No Iterations 2
DILUPBiCG:  Solving for h, Initial residual = 0.020083979, Final residual = 1.4398107e-05, No Iterations 5
GAMG:  Solving for p_rgh, Initial residual = 0.030708175, Final residual = 3.0214294e-05, No Iterations 5
time step continuity errors : sum local = 0.00012244571, global = 6.1475109e-06, cumulative = 0.00011811378
ExecutionTime = 28.41 s  ClockTime = 29 s
Inflow      : -6.0296356e-06 [kg/s]
Outflow     : -6.0204385e-06 [kg/s]
EnergyInflow  : -1.819744 [W]
EnergyOutflow : -1.8153668 [W]
EnergyBalance : 0.0043772431 [W]
rho max/avg/min : 1.1762592 1.1588581 1.1468856
T   max/avg/min : 307.68936 304.5431 300.01026
P   max/avg/min : 101324.94 101319.24 101313.54
Prg max/avg/min : 101325.02 101324.92 101324.74
U   max/avg/min : 0.012144769 0.0020504324 -0.013485861
Prg max-min : 0.28355107
 
sngrad(rho) :0.88664517 0.096991268 0.0079102743
 
Iteration Number = 63

DILUPBiCG:  Solving for Ux, Initial residual = 0.027047185, Final residual = 1.8212847e-06, No Iterations 2
DILUPBiCG:  Solving for Uy, Initial residual = 0.034821853, Final residual = 2.1821322e-06, No Iterations 2
DILUPBiCG:  Solving for Uz, Initial residual = 0.014194885, Final residual = 7.124771e-07, No Iterations 2
DILUPBiCG:  Solving for h, Initial residual = 0.019848073, Final residual = 8.7907454e-06, No Iterations 6
GAMG:  Solving for p_rgh, Initial residual = 0.030584303, Final residual = 2.5806497e-05, No Iterations 6
time step continuity errors : sum local = 0.00010667675, global = 5.2719942e-07, cumulative = 0.00011864098
ExecutionTime = 28.85 s  ClockTime = 29 s
Inflow      : -6.2903422e-06 [kg/s]
Outflow     : -6.2895535e-06 [kg/s]
EnergyInflow  : -1.8984253 [W]
EnergyOutflow : -1.8964844 [W]
EnergyBalance : 0.0019408456 [W]
rho max/avg/min : 1.1762412 1.1585674 1.1464962
T   max/avg/min : 307.7939 304.61993 300.01061
P   max/avg/min : 101324.94 101319.24 101313.54
Prg max/avg/min : 101325.02 101324.92 101324.73
U   max/avg/min : 0.012619135 0.0021193329 -0.014097849
Prg max-min : 0.28776833
 
sngrad(rho) :0.99937767 0.099770197 0.0081875727
 
Iteration Number = 64

DILUPBiCG:  Solving for Ux, Initial residual = 0.026487258, Final residual = 1.7062721e-06, No Iterations 2
DILUPBiCG:  Solving for Uy, Initial residual = 0.037794426, Final residual = 2.4921259e-06, No Iterations 2
DILUPBiCG:  Solving for Uz, Initial residual = 0.013871487, Final residual = 6.958028e-07, No Iterations 2
DILUPBiCG:  Solving for h, Initial residual = 0.019631307, Final residual = 1.8571892e-05, No Iterations 5
GAMG:  Solving for p_rgh, Initial residual = 0.031480659, Final residual = 2.751017e-05, No Iterations 4
time step continuity errors : sum local = 0.00011594474, global = 2.2909435e-06, cumulative = 0.00012093192
ExecutionTime = 29.25 s  ClockTime = 30 s
Inflow      : -6.5680398e-06 [kg/s]
Outflow     : -6.5646124e-06 [kg/s]
EnergyInflow  : -1.9822344 [W]
EnergyOutflow : -1.97939 [W]
EnergyBalance : 0.002844402 [W]
rho max/avg/min : 1.1762357 1.1582767 1.1461076
T   max/avg/min : 307.89825 304.6968 300.01096
P   max/avg/min : 101324.94 101319.24 101313.54
Prg max/avg/min : 101325.02 101324.92 101324.73
U   max/avg/min : 0.013106361 0.0021886624 -0.014716785
Prg max-min : 0.29082715
 
sngrad(rho) :1.0321494 0.10163543 0.0084575779
 
Iteration Number = 65

DILUPBiCG:  Solving for Ux, Initial residual = 0.026898971, Final residual = 1.8345889e-06, No Iterations 2
DILUPBiCG:  Solving for Uy, Initial residual = 0.035878178, Final residual = 2.2769617e-06, No Iterations 2
DILUPBiCG:  Solving for Uz, Initial residual = 0.013628999, Final residual = 6.8879133e-07, No Iterations 2
DILUPBiCG:  Solving for h, Initial residual = 0.019389031, Final residual = 1.0591937e-05, No Iterations 6
GAMG:  Solving for p_rgh, Initial residual = 0.030021181, Final residual = 2.0758125e-05, No Iterations 6
time step continuity errors : sum local = 8.9047425e-05, global = 6.2077153e-06, cumulative = 0.00012713963
ExecutionTime = 29.68 s  ClockTime = 30 s
Inflow      : -6.8489642e-06 [kg/s]
Outflow     : -6.839677e-06 [kg/s]
EnergyInflow  : -2.0670174 [W]
EnergyOutflow : -2.0622951 [W]
EnergyBalance : 0.0047222902 [W]
rho max/avg/min : 1.1762344 1.1579863 1.1457191
T   max/avg/min : 308.0026 304.77363 300.01129
P   max/avg/min : 101324.94 101319.24 101313.54
Prg max/avg/min : 101325.02 101324.92 101324.73
[...]
ExecutionTime = 1295.62 s  ClockTime = 1296 s
Inflow      : 0.00031413982 [kg/s]
Outflow     : 0.00031413719 [kg/s]
EnergyInflow  : 94.807397 [W]
EnergyOutflow : 96.999228 [W]
EnergyBalance : 2.1918313 [W]
rho max/avg/min : 1.1764113 1.0709709 0.86264607
T   max/avg/min : 409.07103 332.05769 299.99388
P   max/avg/min : 101324.92 101319.21 101313.49
Prg max/avg/min : 101324.99 101324.37 101321.94
U   max/avg/min : 0.53775894 0.16235451 0
Prg max-min : 3.0482685
 
sngrad(rho) :0.50388159 -0.0010425707 -0.29958226
 
Iteration Number = 3203

DILUPBiCG:  Solving for Ux, Initial residual = 0.052890312, Final residual = 4.9408324e-06, No Iterations 2
DILUPBiCG:  Solving for Uy, Initial residual = 0.10519265, Final residual = 1.2038462e-05, No Iterations 2
DILUPBiCG:  Solving for Uz, Initial residual = 0.00020828397, Final residual = 1.1324742e-07, No Iterations 2
DILUPBiCG:  Solving for h, Initial residual = 0.0010157371, Final residual = 7.7899219e-07, No Iterations 8
GAMG:  Solving for p_rgh, Initial residual = 0.14602558, Final residual = 7.9096492e-05, No Iterations 3
time step continuity errors : sum local = 0.00069121276, global = 8.4583432e-07, cumulative = 0.006846906
ExecutionTime = 1296.04 s  ClockTime = 1297 s
Inflow      : 0.00031411953 [kg/s]
Outflow     : 0.00031412079 [kg/s]
EnergyInflow  : 94.801274 [W]
EnergyOutflow : 96.991664 [W]
EnergyBalance : 2.1903909 [W]
rho max/avg/min : 1.1764113 1.0709695 0.8626459
T   max/avg/min : 409.07111 332.05803 299.99388
P   max/avg/min : 101324.92 101319.2 101313.49
Prg max/avg/min : 101324.99 101324.37 101321.94
U   max/avg/min : 0.5377271 0.1623533 0
Prg max-min : 3.0496734
 
sngrad(rho) :0.56589871 -9.3536773e-07 -0.315728
 
Iteration Number = 3204

DILUPBiCG:  Solving for Ux, Initial residual = 0.054077722, Final residual = 5.1153233e-06, No Iterations 2
DILUPBiCG:  Solving for Uy, Initial residual = 0.1094425, Final residual = 1.4599362e-05, No Iterations 2
DILUPBiCG:  Solving for Uz, Initial residual = 0.00020933241, Final residual = 5.1203546e-08, No Iterations 2
DILUPBiCG:  Solving for h, Initial residual = 0.00098097087, Final residual = 3.4136796e-07, No Iterations 10
GAMG:  Solving for p_rgh, Initial residual = 0.13846309, Final residual = 8.1873797e-05, No Iterations 3
time step continuity errors : sum local = 0.00072953424, global = 1.9039588e-05, cumulative = 0.0068659456
ExecutionTime = 1296.58 s  ClockTime = 1297 s
Inflow      : 0.00031413343 [kg/s]
Outflow     : 0.00031416192 [kg/s]
EnergyInflow  : 94.80547 [W]
EnergyOutflow : 97.000859 [W]
EnergyBalance : 2.1953894 [W]
rho max/avg/min : 1.1764113 1.0709682 0.86264571
T   max/avg/min : 409.0712 332.05845 299.99388
P   max/avg/min : 101324.92 101319.2 101313.49
Prg max/avg/min : 101324.99 101324.37 101321.94
U   max/avg/min : 0.5376919 0.16235245 0
Prg max-min : 3.0496563
 
sngrad(rho) :0.482665 0.00060146302 -0.36012295
 
Iteration Number = 3205

DILUPBiCG:  Solving for Ux, Initial residual = 0.0505877, Final residual = 4.6074575e-06, No Iterations 2
DILUPBiCG:  Solving for Uy, Initial residual = 0.10163102, Final residual = 1.2137051e-05, No Iterations 2
DILUPBiCG:  Solving for Uz, Initial residual = 0.0002123403, Final residual = 5.1462622e-07, No Iterations 2
DILUPBiCG:  Solving for h, Initial residual = 0.00098963164, Final residual = 8.0873876e-07, No Iterations 8
GAMG:  Solving for p_rgh, Initial residual = 0.13814107, Final residual = 9.4261502e-05, No Iterations 3
time step continuity errors : sum local = 0.00085731402, global = 5.664627e-06, cumulative = 0.0068716102
ExecutionTime = 1297.13 s  ClockTime = 1298 s
Inflow      : 0.00031414314 [kg/s]
Outflow     : 0.00031415161 [kg/s]
EnergyInflow  : 94.808398 [W]
EnergyOutflow : 96.997163 [W]
EnergyBalance : 2.1887652 [W]
rho max/avg/min : 1.1764113 1.0709672 0.86264553
T   max/avg/min : 409.07128 332.05878 299.99388
P   max/avg/min : 101324.92 101319.2 101313.49
Prg max/avg/min : 101324.99 101324.37 101321.93
U   max/avg/min : 0.53774012 0.16235236 0
Prg max-min : 3.0515012
 
sngrad(rho) :0.64568705 0.00197454 -0.34829869
 
Iteration Number = 3206

DILUPBiCG:  Solving for Ux, Initial residual = 0.050769832, Final residual = 5.2004825e-06, No Iterations 2
DILUPBiCG:  Solving for Uy, Initial residual = 0.099533331, Final residual = 1.1775531e-05, No Iterations 2
DILUPBiCG:  Solving for Uz, Initial residual = 0.00021270141, Final residual = 9.5243662e-08, No Iterations 2
DILUPBiCG:  Solving for h, Initial residual = 0.0010235745, Final residual = 9.7288077e-08, No Iterations 10
GAMG:  Solving for p_rgh, Initial residual = 0.13936309, Final residual = 7.344414e-05, No Iterations 3
time step continuity errors : sum local = 0.00067632138, global = 1.4685602e-05, cumulative = 0.0068862958
ExecutionTime = 1297.69 s  ClockTime = 1298 s
Inflow      : 0.00031417218 [kg/s]
Outflow     : 0.00031419415 [kg/s]
EnergyInflow  : 94.817164 [W]
EnergyOutflow : 97.011816 [W]
EnergyBalance : 2.1946515 [W]
rho max/avg/min : 1.1764113 1.0709679 0.86264535
T   max/avg/min : 409.07136 332.05854 299.99388
P   max/avg/min : 101324.92 101319.2 101313.48
Prg max/avg/min : 101324.99 101324.37 101321.93
U   max/avg/min : 0.53774152 0.16235203 0
Prg max-min : 3.0513252
 
sngrad(rho) :0.63163938 0.0034888993 -0.53139452
 
Iteration Number = 3207

DILUPBiCG:  Solving for Ux, Initial residual = 0.054210022, Final residual = 5.218e-06, No Iterations 2
DILUPBiCG:  Solving for Uy, Initial residual = 0.1103225, Final residual = 1.4393817e-05, No Iterations 2
DILUPBiCG:  Solving for Uz, Initial residual = 0.00021409062, Final residual = 6.9207744e-08, No Iterations 2
DILUPBiCG:  Solving for h, Initial residual = 0.0010293269, Final residual = 6.7499249e-07, No Iterations 10
GAMG:  Solving for p_rgh, Initial residual = 0.14269198, Final residual = 7.3539805e-05, No Iterations 3
time step continuity errors : sum local = 0.00067571781, global = -1.4372031e-05, cumulative = 0.0068719238
ExecutionTime = 1298.26 s  ClockTime = 1299 s
Inflow      : 0.00031417064 [kg/s]
Outflow     : 0.00031414914 [kg/s]
EnergyInflow  : 94.816699 [W]
EnergyOutflow : 97.000989 [W]
EnergyBalance : 2.18429 [W]
rho max/avg/min : 1.1764113 1.0709682 0.86264518
T   max/avg/min : 409.07144 332.0584 299.99388
P   max/avg/min : 101324.92 101319.2 101313.49
Prg max/avg/min : 101324.99 101324.37 101321.94
U   max/avg/min : 0.53778379 0.16235139 0
Prg max-min : 3.0490876
 
sngrad(rho) :0.2938785 0.0025803765 -0.4287885
 
Iteration Number = 3208

DILUPBiCG:  Solving for Ux, Initial residual = 0.052064081, Final residual = 4.8154303e-06, No Iterations 2
DILUPBiCG:  Solving for Uy, Initial residual = 0.10673146, Final residual = 1.5965659e-05, No Iterations 2
DILUPBiCG:  Solving for Uz, Initial residual = 0.00020488965, Final residual = 1.3132666e-07, No Iterations 2
DILUPBiCG:  Solving for h, Initial residual = 0.0010300143, Final residual = 2.9600533e-07, No Iterations 10
GAMG:  Solving for p_rgh, Initial residual = 0.1468608, Final residual = 8.9309899e-05, No Iterations 3
time step continuity errors : sum local = 0.00080529877, global = -3.5530337e-06, cumulative = 0.0068683708
ExecutionTime = 1298.81 s  ClockTime = 1299 s
Inflow      : 0.00031417596 [kg/s]
Outflow     : 0.00031417064 [kg/s]
EnergyInflow  : 94.818304 [W]
EnergyOutflow : 97.009469 [W]
EnergyBalance : 2.1911643 [W]
rho max/avg/min : 1.1764113 1.0709682 0.86264503
T   max/avg/min : 409.07152 332.05829 299.99388
P   max/avg/min : 101324.92 101319.2 101313.49
Prg max/avg/min : 101324.99 101324.37 101321.94
U   max/avg/min : 0.53787207 0.16235059 0
Prg max-min : 3.0480462
 
sngrad(rho) :0.26658019 0.00077133172 -0.33927105
 
Iteration Number = 3209

DILUPBiCG:  Solving for Ux, Initial residual = 0.053944808, Final residual = 4.9749819e-06, No Iterations 2
DILUPBiCG:  Solving for Uy, Initial residual = 0.10784395, Final residual = 1.5586582e-05, No Iterations 2
DILUPBiCG:  Solving for Uz, Initial residual = 0.00021217231, Final residual = 6.093741e-08, No Iterations 2
DILUPBiCG:  Solving for h, Initial residual = 0.0010168325, Final residual = 3.6171936e-07, No Iterations 8
GAMG:  Solving for p_rgh, Initial residual = 0.14976274, Final residual = 8.4600822e-05, No Iterations 3
time step continuity errors : sum local = 0.00074839317, global = -8.012982e-06, cumulative = 0.0068603578
ExecutionTime = 1299.36 s  ClockTime = 1300 s
Inflow      : 0.00031416305 [kg/s]
Outflow     : 0.00031415106 [kg/s]
EnergyInflow  : 94.814409 [W]
EnergyOutflow : 97.003901 [W]
EnergyBalance : 2.1894921 [W]
rho max/avg/min : 1.1764113 1.0709674 0.86264487
T   max/avg/min : 409.0716 332.05842 299.99388
P   max/avg/min : 101324.92 101319.2 101313.49
Prg max/avg/min : 101324.99 101324.37 101321.94
U   max/avg/min : 0.53793501 0.16235011 0
Prg max-min : 3.0481921
 
sngrad(rho) :0.27462543 0.0004687963 -0.24899125
 
Iteration Number = 3210

DILUPBiCG:  Solving for Ux, Initial residual = 0.053846912, Final residual = 4.8911448e-06, No Iterations 2
DILUPBiCG:  Solving for Uy, Initial residual = 0.11153804, Final residual = 1.4977812e-05, No Iterations 2
DILUPBiCG:  Solving for Uz, Initial residual = 0.00020698858, Final residual = 2.1136221e-07, No Iterations 2
DILUPBiCG:  Solving for h, Initial residual = 0.0010227881, Final residual = 4.4607185e-07, No Iterations 10
GAMG:  Solving for p_rgh, Initial residual = 0.14937376, Final residual = 9.001553e-05, No Iterations 3
time step continuity errors : sum local = 0.00079035171, global = 1.0348091e-05, cumulative = 0.0068707059
ExecutionTime = 1299.92 s  ClockTime = 1301 s
Inflow      : 0.00031417179 [kg/s]
Outflow     : 0.00031418727 [kg/s]
EnergyInflow  : 94.817046 [W]
EnergyOutflow : 97.013547 [W]
EnergyBalance : 2.1965007 [W]
rho max/avg/min : 1.1764113 1.070967 0.86264471
T   max/avg/min : 409.07168 332.05849 299.99388
P   max/avg/min : 101324.92 101319.2 101313.49
Prg max/avg/min : 101324.99 101324.37 101321.94
U   max/avg/min : 0.5379342 0.16234989 0
Prg max-min : 3.0498875
 
sngrad(rho) :0.38699158 4.2016313e-05 -0.54310467
 
Iteration Number = 3211

DILUPBiCG:  Solving for Ux, Initial residual = 0.053977436, Final residual = 4.94193e-06, No Iterations 2
DILUPBiCG:  Solving for Uy, Initial residual = 0.11001382, Final residual = 1.7171736e-05, No Iterations 2
DILUPBiCG:  Solving for Uz, Initial residual = 0.0002144413, Final residual = 2.2774764e-07, No Iterations 2
DILUPBiCG:  Solving for h, Initial residual = 0.0010174343, Final residual = 7.2776861e-07, No Iterations 9
GAMG:  Solving for p_rgh, Initial residual = 0.14454954, Final residual = 8.1787178e-05, No Iterations 3
time step continuity errors : sum local = 0.00072618965, global = 8.8323349e-06, cumulative = 0.0068795382
ExecutionTime = 1300.41 s  ClockTime = 1301 s
Inflow      : 0.00031417364 [kg/s]
Outflow     : 0.00031418685 [kg/s]
EnergyInflow  : 94.817604 [W]
EnergyOutflow : 97.010474 [W]
EnergyBalance : 2.1928702 [W]
rho max/avg/min : 1.1764113 1.070966 0.86264454
T   max/avg/min : 409.07175 332.05877 299.99388
P   max/avg/min : 101324.92 101319.2 101313.49
Prg max/avg/min : 101324.99 101324.37 101321.93
U   max/avg/min : 0.53787497 0.16235104 0
Prg max-min : 3.0514755
 
sngrad(rho) :0.43823455 0.0013506131 -0.26435771
 
Iteration Number = 3212

DILUPBiCG:  Solving for Ux, Initial residual = 0.05510198, Final residual = 5.1861744e-06, No Iterations 2
DILUPBiCG:  Solving for Uy, Initial residual = 0.11144711, Final residual = 1.9124109e-05, No Iterations 2
DILUPBiCG:  Solving for Uz, Initial residual = 0.00021978193, Final residual = 1.2807052e-09, No Iterations 3
DILUPBiCG:  Solving for h, Initial residual = 0.0010248581, Final residual = 6.1153718e-07, No Iterations 10
GAMG:  Solving for p_rgh, Initial residual = 0.142393, Final residual = 0.00010116902, No Iterations 3
time step continuity errors : sum local = 0.0009189834, global = 2.5096753e-05, cumulative = 0.006904635
ExecutionTime = 1300.89 s  ClockTime = 1302 s
Inflow      : 0.0003142205 [kg/s]
Outflow     : 0.00031425804 [kg/s]
EnergyInflow  : 94.831746 [W]
EnergyOutflow : 97.030876 [W]
EnergyBalance : 2.1991303 [W]
rho max/avg/min : 1.1764113 1.0709653 0.86264437
T   max/avg/min : 409.07182 332.05903 299.99388
P   max/avg/min : 101324.92 101319.2 101313.48
Prg max/avg/min : 101324.99 101324.37 101321.93
U   max/avg/min : 0.53782708 0.16235327 0
Prg max-min : 3.0531066
 
sngrad(rho) :0.43204603 0.0019947575 -0.35352118
 
Iteration Number = 3213

DILUPBiCG:  Solving for Ux, Initial residual = 0.051886081, Final residual = 5.0942578e-06, No Iterations 2
DILUPBiCG:  Solving for Uy, Initial residual = 0.10578431, Final residual = 1.6144168e-05, No Iterations 2
DILUPBiCG:  Solving for Uz, Initial residual = 0.0002268035, Final residual = 1.1538183e-07, No Iterations 2
DILUPBiCG:  Solving for h, Initial residual = 0.0010458446, Final residual = 2.0666039e-07, No Iterations 11
GAMG:  Solving for p_rgh, Initial residual = 0.1412159, Final residual = 0.00010492073, No Iterations 3
time step continuity errors : sum local = 0.00097405833, global = 8.5758893e-06, cumulative = 0.0069132108
ExecutionTime = 1301.36 s  ClockTime = 1302 s
Inflow      : 0.00031424544 [kg/s]
Outflow     : 0.00031425827 [kg/s]
EnergyInflow  : 94.839273 [W]
EnergyOutflow : 97.031325 [W]
EnergyBalance : 2.1920525 [W]
rho max/avg/min : 1.1764113 1.0709649 0.86264421
T   max/avg/min : 409.07189 332.05914 299.99388
P   max/avg/min : 101324.92 101319.2 101313.49
Prg max/avg/min : 101324.99 101324.36 101321.93
U   max/avg/min : 0.53775855 0.16235569 0
Prg max-min : 3.052569
 
sngrad(rho) :0.44915215 0.003248236 -0.38540656
 
Iteration Number = 3214

DILUPBiCG:  Solving for Ux, Initial residual = 0.053964706, Final residual = 5.4206903e-06, No Iterations 2
DILUPBiCG:  Solving for Uy, Initial residual = 0.10626366, Final residual = 1.6355769e-05, No Iterations 2
DILUPBiCG:  Solving for Uz, Initial residual = 0.00022510341, Final residual = 1.0603245e-08, No Iterations 3
DILUPBiCG:  Solving for h, Initial residual = 0.0010594971, Final residual = 4.8916411e-07, No Iterations 10
GAMG:  Solving for p_rgh, Initial residual = 0.14373412, Final residual = 8.6306071e-05, No Iterations 3
time step continuity errors : sum local = 0.00080713088, global = 2.1197771e-05, cumulative = 0.0069344086
ExecutionTime = 1301.86 s  ClockTime = 1303 s
Inflow      : 0.0003142971 [kg/s]
Outflow     : 0.00031432882 [kg/s]
EnergyInflow  : 94.854865 [W]
EnergyOutflow : 97.055315 [W]
EnergyBalance : 2.2004499 [W]
rho max/avg/min : 1.1764113 1.0709657 0.86264408
T   max/avg/min : 409.07196 332.05889 299.99388
P   max/avg/min : 101324.92 101319.2 101313.49
Prg max/avg/min : 101324.99 101324.37 101321.93
U   max/avg/min : 0.53782151 0.16235838 0
Prg max-min : 3.0513849
 
sngrad(rho) :0.20735395 0.0022480283 -0.32240501
 
Iteration Number = 3215

DILUPBiCG:  Solving for Ux, Initial residual = 0.053908905, Final residual = 5.1523873e-06, No Iterations 2
DILUPBiCG:  Solving for Uy, Initial residual = 0.10723874, Final residual = 1.2857626e-05, No Iterations 2
DILUPBiCG:  Solving for Uz, Initial residual = 0.00022788351, Final residual = 1.3852504e-07, No Iterations 2
DILUPBiCG:  Solving for h, Initial residual = 0.0010527293, Final residual = 1.3453517e-07, No Iterations 10
GAMG:  Solving for p_rgh, Initial residual = 0.14490535, Final residual = 0.00010128191, No Iterations 3
time step continuity errors : sum local = 0.00093271964, global = -6.5450817e-06, cumulative = 0.0069278635
ExecutionTime = 1302.35 s  ClockTime = 1303 s
Inflow      : 0.00031431271 [kg/s]
Outflow     : 0.00031430292 [kg/s]
EnergyInflow  : 94.859576 [W]
EnergyOutflow : 97.050819 [W]
EnergyBalance : 2.1912438 [W]
rho max/avg/min : 1.1764113 1.0709662 0.86264394
T   max/avg/min : 409.07203 332.05861 299.99388
P   max/avg/min : 101324.92 101319.2 101313.49
Prg max/avg/min : 101324.99 101324.37 101321.94
U   max/avg/min : 0.53786945 0.16236118 0
Prg max-min : 3.0500182
 
sngrad(rho) :0.43101777 0.00044372076 -0.26336013
 
Iteration Number = 3216

DILUPBiCG:  Solving for Ux, Initial residual = 0.052341712, Final residual = 4.7202473e-06, No Iterations 2
DILUPBiCG:  Solving for Uy, Initial residual = 0.11185471, Final residual = 1.2864383e-05, No Iterations 2
DILUPBiCG:  Solving for Uz, Initial residual = 0.00022240885, Final residual = 5.7595155e-08, No Iterations 2
DILUPBiCG:  Solving for h, Initial residual = 0.0010390227, Final residual = 5.0366148e-07, No Iterations 9
GAMG:  Solving for p_rgh, Initial residual = 0.14817958, Final residual = 0.00011227467, No Iterations 3
time step continuity errors : sum local = 0.001009046, global = 7.8267401e-06, cumulative = 0.0069356903
ExecutionTime = 1302.8 s  ClockTime = 1304 s
Inflow      : 0.00031435574 [kg/s]
Outflow     : 0.00031436745 [kg/s]
EnergyInflow  : 94.872562 [W]
EnergyOutflow : 97.071504 [W]
EnergyBalance : 2.1989414 [W]
rho max/avg/min : 1.1764113 1.0709667 0.86264382
T   max/avg/min : 409.07209 332.05837 299.99388
P   max/avg/min : 101324.92 101319.2 101313.48
Prg max/avg/min : 101324.99 101324.37 101321.94
U   max/avg/min : 0.53793178 0.16236505 0
Prg max-min : 3.048122
 
sngrad(rho) :0.46847916 0.000963867 -0.65473358
 
Iteration Number = 3217

DILUPBiCG:  Solving for Ux, Initial residual = 0.055057267, Final residual = 5.3605848e-06, No Iterations 2
DILUPBiCG:  Solving for Uy, Initial residual = 0.10912112, Final residual = 1.2023143e-05, No Iterations 2
DILUPBiCG:  Solving for Uz, Initial residual = 0.00023404846, Final residual = 4.6635436e-08, No Iterations 2
DILUPBiCG:  Solving for h, Initial residual = 0.0010391589, Final residual = 5.4775894e-07, No Iterations 10
GAMG:  Solving for p_rgh, Initial residual = 0.149671, Final residual = 9.7939596e-05, No Iterations 3
time step continuity errors : sum local = 0.00086520634, global = -1.1768986e-06, cumulative = 0.0069345134
ExecutionTime = 1303.28 s  ClockTime = 1304 s
Inflow      : 0.00031437983 [kg/s]
Outflow     : 0.00031437807 [kg/s]
EnergyInflow  : 94.879832 [W]
EnergyOutflow : 97.073735 [W]
EnergyBalance : 2.1939033 [W]
rho max/avg/min : 1.1764113 1.0709656 0.8626437
T   max/avg/min : 409.07216 332.05863 299.99388
P   max/avg/min : 101324.92 101319.2 101313.48
Prg max/avg/min : 101324.99 101324.37 101321.93
U   max/avg/min : 0.53797673 0.1623693 0
Prg max-min : 3.0508151
 
sngrad(rho) :0.49068973 0.00047902839 -0.7374343
 
Iteration Number = 3218

DILUPBiCG:  Solving for Ux, Initial residual = 0.055630309, Final residual = 5.0404384e-06, No Iterations 2
DILUPBiCG:  Solving for Uy, Initial residual = 0.11261184, Final residual = 1.2107742e-05, No Iterations 2
DILUPBiCG:  Solving for Uz, Initial residual = 0.00023104388, Final residual = 2.2714215e-08, No Iterations 2
DILUPBiCG:  Solving for h, Initial residual = 0.0010438438, Final residual = 1.130536e-08, No Iterations 12
GAMG:  Solving for p_rgh, Initial residual = 0.14706041, Final residual = 9.7993026e-05, No Iterations 3
time step continuity errors : sum local = 0.00086534324, global = 2.2256496e-05, cumulative = 0.0069567699
ExecutionTime = 1303.75 s  ClockTime = 1304 s
Inflow      : 0.00031444054 [kg/s]
Outflow     : 0.00031447384 [kg/s]
EnergyInflow  : 94.898155 [W]
EnergyOutflow : 97.100243 [W]
EnergyBalance : 2.2020879 [W]
rho max/avg/min : 1.1764113 1.0709641 0.86264354
T   max/avg/min : 409.07222 332.0591 299.99388
P   max/avg/min : 101324.92 101319.2 101313.48
Prg max/avg/min : 101324.99 101324.37 101321.93
U   max/avg/min : 0.53795143 0.16237453 0
Prg max-min : 3.0544218
 
sngrad(rho) :0.51444435 0.0013808276 -0.37259135
 
Iteration Number = 3219

DILUPBiCG:  Solving for Ux, Initial residual = 0.052690057, Final residual = 4.8530205e-06, No Iterations 2
DILUPBiCG:  Solving for Uy, Initial residual = 0.10586045, Final residual = 1.2629742e-05, No Iterations 2
DILUPBiCG:  Solving for Uz, Initial residual = 0.00023730107, Final residual = 2.0866598e-07, No Iterations 2
DILUPBiCG:  Solving for h, Initial residual = 0.0010088917, Final residual = 7.3373541e-07, No Iterations 10
