/*---------------------------------------------------------------------------*\
| =========                 |                                                 |
| \\      /  F ield         | OpenFOAM: The Open Source CFD Toolbox           |
|  \\    /   O peration     | Version:  4.0                                   |
|   \\  /    A nd           | Web:      www.OpenFOAM.org                      |
|    \\/     M anipulation  |                                                 |
\*---------------------------------------------------------------------------*/
Build  : 4.0-665f1db4c1f1
Exec   : pupoBuoyantSimpleFoam
Date   : Aug 19 2016
Time   : 11:39:05
Host   : "SC500"
PID    : 31701
Case   : /home/pedro/Documents/ThesisProject/OpenFoam/validation7rod/justFluid
nProcs : 1
sigFpe : Enabling floating point exception trapping (FOAM_SIGFPE).
fileModificationChecking : Monitoring run-time modified files using timeStampMaster
allowSystemOperations : Allowing user-supplied system call operations

// * * * * * * * * * * * * * * * * * * * * * * * * * * * * * * * * * * * * * //
Create time

Create mesh for time = 0


SIMPLE: convergence criteria
    field p_rgh	 tolerance 1e-06
    field Uz	 tolerance 1e-06
    field h	 tolerance 1e-06

Reading thermophysical properties

Selecting thermodynamics package 
{
    type            heRhoThermo;
    mixture         pureMixture;
    transport       sutherland;
    thermo          hConst;
    equationOfState perfectGas;
    specie          specie;
    energy          sensibleEnthalpy;
}


Reading g

Reading hRef
Calculating field g.h

Selecting turbulence model type laminar
No MRF models present

Selecting radiationModel none
 
rho max/avg/min : 1.2016456 1.2015764 1.2015072
T   max/avg/min : 293.7 293.7 293.7
P   max/avg/min : 101324.94 101319.11 101313.27
Prg max/avg/min : 101325 101325 101325
U   max/avg/min : 0 0 0
 
No finite volume options present


Starting Iteration loop

Iteration Number = 1

DILUPBiCG:  Solving for Ux, Initial residual = 0.99999998, Final residual = 0.0025293435, No Iterations 1
DILUPBiCG:  Solving for Uy, Initial residual = 0.99999999, Final residual = 0.0019605656, No Iterations 1
DILUPBiCG:  Solving for Uz, Initial residual = 1, Final residual = 0.0040526411, No Iterations 1
DILUPBiCG:  Solving for h, Initial residual = 0.99999994, Final residual = 0.0027251576, No Iterations 1
MACARENA
GAMG:  Solving for p_rgh, Initial residual = 0.99963601, Final residual = 0.0020310224, No Iterations 1
MACARENA
MACARENA
time step continuity errors : sum local = 0.0002415258, global = -6.1913907e-09, cumulative = -6.1913907e-09
ExecutionTime = 1.59 s  ClockTime = 1 s
Inflow      : -1.5168271e-11 [kg/s]
Outflow     : -1.5963773e-11 [kg/s]
EnergyInflow  : -4.4816507e-06 [W]
EnergyOutflow : -4.7166916e-06 [W]
rho max/avg/min : 1.2016456 1.201536 1.2003864
T   max/avg/min : 293.97423 293.70988 293.7
P   max/avg/min : 101324.94 101319.11 101313.27
Prg max/avg/min : 101325 101325 101324.99
U   max/avg/min : 6.3499308e-07 1.4666012e-09 -4.4256703e-07
Prg max-min : 0.011749614
 
Iteration Number = 2

DILUPBiCG:  Solving for Ux, Initial residual = 0.22348291, Final residual = 5.5943116e-05, No Iterations 1
DILUPBiCG:  Solving for Uy, Initial residual = 0.21590943, Final residual = 6.4570457e-05, No Iterations 1
DILUPBiCG:  Solving for Uz, Initial residual = 0.38403654, Final residual = 0.0011836636, No Iterations 1
DILUPBiCG:  Solving for h, Initial residual = 0.25982614, Final residual = 0.00033953753, No Iterations 1
MACARENA
GAMG:  Solving for p_rgh, Initial residual = 0.16263393, Final residual = 0.0010863773, No Iterations 1
MACARENA
MACARENA
time step continuity errors : sum local = 0.00042720312, global = 2.868388e-07, cumulative = 2.8064741e-07
ExecutionTime = 2.23 s  ClockTime = 2 s
Inflow      : -3.6285953e-11 [kg/s]
Outflow     : 5.6860154e-13 [kg/s]
EnergyInflow  : -1.0721128e-05 [W]
EnergyOutflow : 1.6800026e-07 [W]
rho max/avg/min : 1.2016456 1.2014989 1.1997078
T   max/avg/min : 294.14052 293.71897 293.7
P   max/avg/min : 101324.94 101319.11 101313.27
Prg max/avg/min : 101325 101325 101324.98
U   max/avg/min : 2.0671428e-06 5.4423401e-09 -1.046127e-06
Prg max-min : 0.018309705
 
Iteration Number = 3

DILUPBiCG:  Solving for Ux, Initial residual = 0.098088899, Final residual = 5.9111626e-05, No Iterations 1
DILUPBiCG:  Solving for Uy, Initial residual = 0.093642415, Final residual = 6.8859031e-05, No Iterations 1
DILUPBiCG:  Solving for Uz, Initial residual = 0.26716107, Final residual = 0.00077465545, No Iterations 1
DILUPBiCG:  Solving for h, Initial residual = 0.16420299, Final residual = 0.00016513193, No Iterations 1
MACARENA
GAMG:  Solving for p_rgh, Initial residual = 0.090416102, Final residual = 0.00035475921, No Iterations 2
MACARENA
MACARENA
time step continuity errors : sum local = 0.00016106829, global = -2.2673048e-07, cumulative = 5.3916934e-08
ExecutionTime = 2.88 s  ClockTime = 3 s
Inflow      : 5.591127e-11 [kg/s]
Outflow     : 2.6779748e-11 [kg/s]
EnergyInflow  : 1.6519667e-05 [W]
EnergyOutflow : 7.9124204e-06 [W]
rho max/avg/min : 1.2016456 1.2014625 1.1991983
T   max/avg/min : 294.26548 293.72788 293.7
P   max/avg/min : 101324.94 101319.11 101313.27
Prg max/avg/min : 101325 101325 101324.98
U   max/avg/min : 3.3676438e-06 1.284684e-08 -6.5628167e-07
Prg max-min : 0.023374347
 
Iteration Number = 4

DILUPBiCG:  Solving for Ux, Initial residual = 0.075184155, Final residual = 6.7921923e-05, No Iterations 1
DILUPBiCG:  Solving for Uy, Initial residual = 0.071062343, Final residual = 7.5517793e-05, No Iterations 1
DILUPBiCG:  Solving for Uz, Initial residual = 0.19418632, Final residual = 0.00049965073, No Iterations 1
DILUPBiCG:  Solving for h, Initial residual = 0.1198069, Final residual = 0.00011963962, No Iterations 1
MACARENA
GAMG:  Solving for p_rgh, Initial residual = 0.067321713, Final residual = 0.00020304727, No Iterations 2
MACARENA
MACARENA
time step continuity errors : sum local = 9.8072317e-05, global = 4.4316907e-08, cumulative = 9.823384e-08
ExecutionTime = 3.56 s  ClockTime = 3 s
Inflow      : 4.5901994e-11 [kg/s]
Outflow     : 5.1596063e-11 [kg/s]
EnergyInflow  : 1.3562304e-05 [W]
EnergyOutflow : 1.5244733e-05 [W]
rho max/avg/min : 1.2016456 1.201426 1.1987712
T   max/avg/min : 294.37032 293.7368 293.7
P   max/avg/min : 101324.94 101319.11 101313.27
Prg max/avg/min : 101325 101325 101324.97
U   max/avg/min : 4.2132955e-06 2.2306694e-08 -9.034957e-07
Prg max-min : 0.027499425
 
Iteration Number = 5

DILUPBiCG:  Solving for Ux, Initial residual = 0.063991154, Final residual = 3.2150708e-05, No Iterations 1
DILUPBiCG:  Solving for Uy, Initial residual = 0.059281853, Final residual = 3.4418567e-05, No Iterations 1
DILUPBiCG:  Solving for Uz, Initial residual = 0.15701657, Final residual = 0.00021775228, No Iterations 1
DILUPBiCG:  Solving for h, Initial residual = 0.094979466, Final residual = 9.8730762e-05, No Iterations 1
MACARENA
GAMG:  Solving for p_rgh, Initial residual = 0.052335597, Final residual = 0.00027257548, No Iterations 2
MACARENA
MACARENA
time step continuity errors : sum local = 0.00013968882, global = 3.9475017e-07, cumulative = 4.9298401e-07
ExecutionTime = 4.23 s  ClockTime = 4 s
Inflow      : 2.1420382e-11 [kg/s]
Outflow     : 7.2139956e-11 [kg/s]
EnergyInflow  : 6.3289131e-06 [W]
EnergyOutflow : 2.1314724e-05 [W]
rho max/avg/min : 1.2016456 1.2013893 1.1983928
T   max/avg/min : 294.46328 293.74579 293.7
P   max/avg/min : 101324.94 101319.11 101313.27
Prg max/avg/min : 101325 101325 101324.97
U   max/avg/min : 4.5506924e-06 3.3263391e-08 -1.005004e-06
Prg max-min : 0.031241711
 
Iteration Number = 6

DILUPBiCG:  Solving for Ux, Initial residual = 0.054149628, Final residual = 3.0762781e-05, No Iterations 1
DILUPBiCG:  Solving for Uy, Initial residual = 0.05030389, Final residual = 2.7292842e-05, No Iterations 1
DILUPBiCG:  Solving for Uz, Initial residual = 0.14348849, Final residual = 0.00016536231, No Iterations 1
DILUPBiCG:  Solving for h, Initial residual = 0.079014993, Final residual = 8.6278403e-05, No Iterations 1
MACARENA
GAMG:  Solving for p_rgh, Initial residual = 0.044153675, Final residual = 0.00028366718, No Iterations 2
MACARENA
MACARENA
time step continuity errors : sum local = 0.00014810449, global = -1.8667071e-07, cumulative = 3.063133e-07
ExecutionTime = 4.91 s  ClockTime = 5 s
Inflow      : 1.1199476e-10 [kg/s]
Outflow     : 8.8010323e-11 [kg/s]
EnergyInflow  : 3.3090217e-05 [W]
EnergyOutflow : 2.6003888e-05 [W]
rho max/avg/min : 1.2016456 1.2013522 1.1980476
T   max/avg/min : 294.54812 293.75487 293.7
P   max/avg/min : 101324.94 101319.11 101313.27
Prg max/avg/min : 101325 101325 101324.97
U   max/avg/min : 4.487359e-06 4.7929857e-08 -9.1656044e-07
Prg max-min : 0.034609301
 
Iteration Number = 7

DILUPBiCG:  Solving for Ux, Initial residual = 0.05034258, Final residual = 2.6165568e-05, No Iterations 1
DILUPBiCG:  Solving for Uy, Initial residual = 0.046617405, Final residual = 2.4535157e-05, No Iterations 1
DILUPBiCG:  Solving for Uz, Initial residual = 0.132689, Final residual = 0.000194961, No Iterations 1
DILUPBiCG:  Solving for h, Initial residual = 0.067884835, Final residual = 7.809454e-05, No Iterations 1
MACARENA
GAMG:  Solving for p_rgh, Initial residual = 0.038689352, Final residual = 0.00031040323, No Iterations 2
MACARENA
MACARENA
time step continuity errors : sum local = 0.00016715451, global = 9.6317975e-09, cumulative = 3.159451e-07
ExecutionTime = 5.61 s  ClockTime = 5 s
Inflow      : 9.7389892e-11 [kg/s]
Outflow     : 9.8627436e-11 [kg/s]
EnergyInflow  : 2.8775032e-05 [W]
EnergyOutflow : 2.9140938e-05 [W]
rho max/avg/min : 1.2016456 1.2013147 1.1977271
T   max/avg/min : 294.62693 293.76406 293.7
P   max/avg/min : 101324.94 101319.11 101313.27
Prg max/avg/min : 101325 101325 101324.96
U   max/avg/min : 4.0922689e-06 6.5408613e-08 -7.9322284e-07
Prg max-min : 0.037737004
 
Iteration Number = 8

DILUPBiCG:  Solving for Ux, Initial residual = 0.045185318, Final residual = 2.1492717e-05, No Iterations 1
DILUPBiCG:  Solving for Uy, Initial residual = 0.043082552, Final residual = 2.3572828e-05, No Iterations 1
DILUPBiCG:  Solving for Uz, Initial residual = 0.12021598, Final residual = 0.00012258096, No Iterations 1
DILUPBiCG:  Solving for h, Initial residual = 0.059631805, Final residual = 7.2490173e-05, No Iterations 1
MACARENA
GAMG:  Solving for p_rgh, Initial residual = 0.034527293, Final residual = 0.0003359175, No Iterations 2
MACARENA
MACARENA
time step continuity errors : sum local = 0.00018509597, global = 3.4775569e-07, cumulative = 6.6370078e-07
ExecutionTime = 6.25 s  ClockTime = 6 s
Inflow      : 6.0640602e-11 [kg/s]
Outflow     : 1.0532208e-10 [kg/s]
EnergyInflow  : 1.7917006e-05 [W]
EnergyOutflow : 3.1119076e-05 [W]
rho max/avg/min : 1.2016456 1.2012768 1.1974259
T   max/avg/min : 294.70106 293.77335 293.7
P   max/avg/min : 101324.94 101319.11 101313.27
Prg max/avg/min : 101325 101325 101324.96
U   max/avg/min : 3.570277e-06 8.5130378e-08 -9.2395021e-07
Prg max-min : 0.040674531
 
Iteration Number = 9

DILUPBiCG:  Solving for Ux, Initial residual = 0.042390902, Final residual = 2.2886467e-05, No Iterations 1
DILUPBiCG:  Solving for Uy, Initial residual = 0.039915983, Final residual = 2.4254829e-05, No Iterations 1
DILUPBiCG:  Solving for Uz, Initial residual = 0.1118322, Final residual = 0.00011661936, No Iterations 1
DILUPBiCG:  Solving for h, Initial residual = 0.053278397, Final residual = 6.8471382e-05, No Iterations 1
MACARENA
GAMG:  Solving for p_rgh, Initial residual = 0.031935174, Final residual = 8.7611278e-05, No Iterations 3
MACARENA
MACARENA
time step continuity errors : sum local = 4.9149439e-05, global = 7.2186862e-07, cumulative = 1.3855694e-06
ExecutionTime = 6.98 s  ClockTime = 7 s
Inflow      : 1.5521155e-11 [kg/s]
Outflow     : 1.0827062e-10 [kg/s]
EnergyInflow  : 4.5859146e-06 [W]
EnergyOutflow : 3.1990417e-05 [W]
rho max/avg/min : 1.2016456 1.2012385 1.1971401
T   max/avg/min : 294.7714 293.78275 293.7
P   max/avg/min : 101324.94 101319.11 101313.27
Prg max/avg/min : 101325 101325 101324.96
U   max/avg/min : 2.9830797e-06 1.1010212e-07 -1.1380663e-06
Prg max-min : 0.043481563
 
Iteration Number = 10

DILUPBiCG:  Solving for Ux, Initial residual = 0.041236444, Final residual = 3.3738826e-05, No Iterations 1
DILUPBiCG:  Solving for Uy, Initial residual = 0.039643665, Final residual = 3.3847755e-05, No Iterations 1
DILUPBiCG:  Solving for Uz, Initial residual = 0.10764458, Final residual = 0.00012799994, No Iterations 1
DILUPBiCG:  Solving for h, Initial residual = 0.048223723, Final residual = 6.548499e-05, No Iterations 1
MACARENA
GAMG:  Solving for p_rgh, Initial residual = 0.030010781, Final residual = 7.5948087e-05, No Iterations 3
MACARENA
MACARENA
time step continuity errors : sum local = 4.3231845e-05, global = 2.978579e-07, cumulative = 1.6834273e-06
ExecutionTime = 7.68 s  ClockTime = 7 s
Inflow      : 6.9914519e-11 [kg/s]
Outflow     : 1.0818486e-10 [kg/s]
EnergyInflow  : 2.0657098e-05 [W]
EnergyOutflow : 3.1965276e-05 [W]
rho max/avg/min : 1.2016456 1.2011997 1.1968673
T   max/avg/min : 294.8386 293.79225 293.7
P   max/avg/min : 101324.94 101319.11 101313.27
Prg max/avg/min : 101325 101325 101324.95
U   max/avg/min : 3.0200982e-06 1.4107896e-07 -1.2960462e-06
Prg max-min : 0.046107419
 
Iteration Number = 11

DILUPBiCG:  Solving for Ux, Initial residual = 0.037472414, Final residual = 2.3187083e-05, No Iterations 1
DILUPBiCG:  Solving for Uy, Initial residual = 0.034960204, Final residual = 2.5380575e-05, No Iterations 1
DILUPBiCG:  Solving for Uz, Initial residual = 0.098974954, Final residual = 0.00010046521, No Iterations 1
DILUPBiCG:  Solving for h, Initial residual = 0.044101373, Final residual = 6.31943e-05, No Iterations 1
MACARENA
GAMG:  Solving for p_rgh, Initial residual = 0.028273612, Final residual = 0.00011353562, No Iterations 3
MACARENA
MACARENA
time step continuity errors : sum local = 6.5406136e-05, global = -5.471171e-08, cumulative = 1.6287156e-06
ExecutionTime = 8.39 s  ClockTime = 8 s
Inflow      : 1.1414253e-10 [kg/s]
Outflow     : 1.0711288e-10 [kg/s]
EnergyInflow  : 3.3724802e-05 [W]
EnergyOutflow : 3.164879e-05 [W]
rho max/avg/min : 1.2016456 1.2011605 1.1966054
T   max/avg/min : 294.90313 293.80186 293.7
P   max/avg/min : 101324.94 101319.11 101313.27
Prg max/avg/min : 101325 101325 101324.95
U   max/avg/min : 3.1898443e-06 1.7697863e-07 -1.4173477e-06
Prg max-min : 0.048664992
 
Iteration Number = 12

DILUPBiCG:  Solving for Ux, Initial residual = 0.035774088, Final residual = 2.6196135e-05, No Iterations 1
DILUPBiCG:  Solving for Uy, Initial residual = 0.034876867, Final residual = 2.6461062e-05, No Iterations 1
DILUPBiCG:  Solving for Uz, Initial residual = 0.092602421, Final residual = 8.9990862e-05, No Iterations 1
DILUPBiCG:  Solving for h, Initial residual = 0.040672145, Final residual = 6.1356093e-05, No Iterations 1
MACARENA
GAMG:  Solving for p_rgh, Initial residual = 0.027041226, Final residual = 0.00011548194, No Iterations 3
MACARENA
MACARENA
time step continuity errors : sum local = 6.7186022e-05, global = 2.1225745e-07, cumulative = 1.840973e-06
ExecutionTime = 9.19 s  ClockTime = 9 s
Inflow      : 8.1254055e-11 [kg/s]
Outflow     : 1.0852601e-10 [kg/s]
EnergyInflow  : 2.4007502e-05 [W]
EnergyOutflow : 3.2066615e-05 [W]
rho max/avg/min : 1.2016456 1.2011209 1.1963529
T   max/avg/min : 294.96536 293.81157 293.7
P   max/avg/min : 101324.94 101319.11 101313.27
Prg max/avg/min : 101325 101325 101324.95
U   max/avg/min : 3.1436253e-06 2.1622142e-07 -1.5558411e-06
Prg max-min : 0.051105711
 
Iteration Number = 13

DILUPBiCG:  Solving for Ux, Initial residual = 0.034723629, Final residual = 2.3690144e-05, No Iterations 1
DILUPBiCG:  Solving for Uy, Initial residual = 0.032380782, Final residual = 2.4016155e-05, No Iterations 1
DILUPBiCG:  Solving for Uz, Initial residual = 0.087028942, Final residual = 7.4861172e-05, No Iterations 1
DILUPBiCG:  Solving for h, Initial residual = 0.037774717, Final residual = 5.9925665e-05, No Iterations 1
MACARENA
GAMG:  Solving for p_rgh, Initial residual = 0.026198346, Final residual = 0.00012488685, No Iterations 3
MACARENA
MACARENA
time step continuity errors : sum local = 7.3277414e-05, global = 2.0632227e-07, cumulative = 2.0472953e-06
ExecutionTime = 10.02 s  ClockTime = 10 s
Inflow      : 8.2843781e-11 [kg/s]
Outflow     : 1.0935315e-10 [kg/s]
EnergyInflow  : 2.4477206e-05 [W]
EnergyOutflow : 3.2311367e-05 [W]
rho max/avg/min : 1.2016456 1.2010809 1.1961087
T   max/avg/min : 295.02559 293.82138 293.7
P   max/avg/min : 101324.94 101319.11 101313.27
Prg max/avg/min : 101325 101325 101324.95
U   max/avg/min : 3.6026883e-06 2.5951436e-07 -1.8366155e-06
Prg max-min : 0.053475454
 
Iteration Number = 14

DILUPBiCG:  Solving for Ux, Initial residual = 0.033926795, Final residual = 2.6837437e-05, No Iterations 1
DILUPBiCG:  Solving for Uy, Initial residual = 0.03361837, Final residual = 2.8302784e-05, No Iterations 1
DILUPBiCG:  Solving for Uz, Initial residual = 0.08264706, Final residual = 7.0299539e-05, No Iterations 1
DILUPBiCG:  Solving for h, Initial residual = 0.035291017, Final residual = 5.871926e-05, No Iterations 1
MACARENA
GAMG:  Solving for p_rgh, Initial residual = 0.02557627, Final residual = 0.00012790396, No Iterations 3
MACARENA
MACARENA
time step continuity errors : sum local = 7.5595572e-05, global = -4.3165601e-07, cumulative = 1.6156393e-06
ExecutionTime = 10.83 s  ClockTime = 11 s
Inflow      : 1.6835447e-10 [kg/s]
Outflow     : 1.1289304e-10 [kg/s]
EnergyInflow  : 4.9742383e-05 [W]
EnergyOutflow : 3.3357704e-05 [W]
rho max/avg/min : 1.2016456 1.2010405 1.1958718
T   max/avg/min : 295.08404 293.8313 293.7
P   max/avg/min : 101324.94 101319.11 101313.27
Prg max/avg/min : 101325 101325 101324.94
U   max/avg/min : 4.2933267e-06 3.0847261e-07 -2.1603006e-06
Prg max-min : 0.055756826
 
Iteration Number = 15

DILUPBiCG:  Solving for Ux, Initial residual = 0.034183511, Final residual = 2.6905993e-05, No Iterations 1
DILUPBiCG:  Solving for Uy, Initial residual = 0.032053661, Final residual = 2.7196594e-05, No Iterations 1
DILUPBiCG:  Solving for Uz, Initial residual = 0.079063944, Final residual = 7.0613622e-05, No Iterations 1
DILUPBiCG:  Solving for h, Initial residual = 0.033136455, Final residual = 5.7885534e-05, No Iterations 1
MACARENA
GAMG:  Solving for p_rgh, Initial residual = 0.02514716, Final residual = 0.00013503628, No Iterations 3
MACARENA
MACARENA
time step continuity errors : sum local = 8.0316939e-05, global = 1.4954945e-07, cumulative = 1.7651887e-06
ExecutionTime = 11.81 s  ClockTime = 12 s
Inflow      : 9.7085803e-11 [kg/s]
Outflow     : 1.163007e-10 [kg/s]
EnergyInflow  : 2.8685185e-05 [W]
EnergyOutflow : 3.4365054e-05 [W]
rho max/avg/min : 1.2016456 1.2009997 1.1956413
T   max/avg/min : 295.14092 293.84131 293.7
P   max/avg/min : 101324.94 101319.11 101313.27
Prg max/avg/min : 101325 101325 101324.94
U   max/avg/min : 4.5282063e-06 3.6137631e-07 -2.481777e-06
Prg max-min : 0.05799107
 
Iteration Number = 16

DILUPBiCG:  Solving for Ux, Initial residual = 0.0342533, Final residual = 2.993145e-05, No Iterations 1
DILUPBiCG:  Solving for Uy, Initial residual = 0.033252069, Final residual = 3.1169727e-05, No Iterations 1
DILUPBiCG:  Solving for Uz, Initial residual = 0.07525758, Final residual = 6.4073911e-05, No Iterations 1
DILUPBiCG:  Solving for h, Initial residual = 0.031255015, Final residual = 5.7212358e-05, No Iterations 1
MACARENA
GAMG:  Solving for p_rgh, Initial residual = 0.024767983, Final residual = 0.00014375224, No Iterations 3
MACARENA
MACARENA
time step continuity errors : sum local = 8.5976285e-05, global = -9.8381179e-07, cumulative = 7.8137695e-07
ExecutionTime = 12.65 s  ClockTime = 12 s
Inflow      : 2.4834765e-10 [kg/s]
Outflow     : 1.2194235e-10 [kg/s]
EnergyInflow  : 7.3377344e-05 [W]
EnergyOutflow : 3.6032556e-05 [W]
rho max/avg/min : 1.2016456 1.2009585 1.1954167
T   max/avg/min : 295.19637 293.85142 293.7
P   max/avg/min : 101324.94 101319.11 101313.27
Prg max/avg/min : 101325 101325 101324.94
U   max/avg/min : 6.3237587e-06 4.2105939e-07 -2.906996e-06
Prg max-min : 0.06014348
 
Iteration Number = 17

DILUPBiCG:  Solving for Ux, Initial residual = 0.034064578, Final residual = 2.7905356e-05, No Iterations 1
DILUPBiCG:  Solving for Uy, Initial residual = 0.032010265, Final residual = 2.953645e-05, No Iterations 1
DILUPBiCG:  Solving for Uz, Initial residual = 0.072385814, Final residual = 6.8254101e-05, No Iterations 1
DILUPBiCG:  Solving for h, Initial residual = 0.029589275, Final residual = 5.6744725e-05, No Iterations 1
MACARENA
GAMG:  Solving for p_rgh, Initial residual = 0.024540691, Final residual = 0.00015144878, No Iterations 3
MACARENA
MACARENA
time step continuity errors : sum local = 9.1028967e-05, global = 3.3549758e-07, cumulative = 1.1168745e-06
ExecutionTime = 13.44 s  ClockTime = 13 s
Inflow      : 8.211768e-11 [kg/s]
Outflow     : 1.2522417e-10 [kg/s]
EnergyInflow  : 2.426267e-05 [W]
EnergyOutflow : 3.700293e-05 [W]
rho max/avg/min : 1.2016456 1.2009169 1.1951974
T   max/avg/min : 295.25053 293.86162 293.7
P   max/avg/min : 101324.94 101319.11 101313.27
Prg max/avg/min : 101325 101325 101324.94
U   max/avg/min : 5.0106906e-06 4.8320059e-07 -3.3517633e-06
Prg max-min : 0.062268588
 
Iteration Number = 18

DILUPBiCG:  Solving for Ux, Initial residual = 0.034613223, Final residual = 3.1857208e-05, No Iterations 1
DILUPBiCG:  Solving for Uy, Initial residual = 0.033076341, Final residual = 3.2886081e-05, No Iterations 1
DILUPBiCG:  Solving for Uz, Initial residual = 0.069196396, Final residual = 6.7006009e-05, No Iterations 1
DILUPBiCG:  Solving for h, Initial residual = 0.028106892, Final residual = 5.6360464e-05, No Iterations 1
MACARENA
GAMG:  Solving for p_rgh, Initial residual = 0.024466516, Final residual = 0.00015936522, No Iterations 3
MACARENA
MACARENA
time step continuity errors : sum local = 9.6242574e-05, global = 3.8287501e-07, cumulative = 1.4997495e-06
ExecutionTime = 14.22 s  ClockTime = 14 s
Inflow      : 7.9604801e-11 [kg/s]
Outflow     : 1.2879859e-10 [kg/s]
EnergyInflow  : 2.352021e-05 [W]
EnergyOutflow : 3.8059869e-05 [W]
rho max/avg/min : 1.2016456 1.200875 1.194983
T   max/avg/min : 295.30352 293.87191 293.7
P   max/avg/min : 101324.94 101319.11 101313.27
Prg max/avg/min : 101325 101325 101324.94
U   max/avg/min : 5.7017491e-06 5.5012546e-07 -3.9860691e-06
Prg max-min : 0.064324086
 
Iteration Number = 19

DILUPBiCG:  Solving for Ux, Initial residual = 0.034398856, Final residual = 2.9735164e-05, No Iterations 1
DILUPBiCG:  Solving for Uy, Initial residual = 0.032189896, Final residual = 3.171668e-05, No Iterations 1
DILUPBiCG:  Solving for Uz, Initial residual = 0.065881192, Final residual = 5.3171582e-05, No Iterations 1
DILUPBiCG:  Solving for h, Initial residual = 0.026777679, Final residual = 5.6100409e-05, No Iterations 1
MACARENA
GAMG:  Solving for p_rgh, Initial residual = 0.024423634, Final residual = 0.00017384819, No Iterations 3
MACARENA
MACARENA
time step continuity errors : sum local = 0.00010551495, global = -7.6254779e-07, cumulative = 7.3720175e-07
ExecutionTime = 15.03 s  ClockTime = 15 s
Inflow      : 2.2541273e-10 [kg/s]
Outflow     : 1.2743659e-10 [kg/s]
EnergyInflow  : 6.6600941e-05 [W]
EnergyOutflow : 3.7658408e-05 [W]
rho max/avg/min : 1.2016456 1.2008327 1.194773
T   max/avg/min : 295.35543 293.8823 293.7
P   max/avg/min : 101324.94 101319.11 101313.27
Prg max/avg/min : 101325 101325 101324.93
U   max/avg/min : 5.828905e-06 6.2461407e-07 -4.6352788e-06
Prg max-min : 0.066360365
 
Iteration Number = 20

DILUPBiCG:  Solving for Ux, Initial residual = 0.034610671, Final residual = 3.2927884e-05, No Iterations 1
DILUPBiCG:  Solving for Uy, Initial residual = 0.032854442, Final residual = 3.3847544e-05, No Iterations 1
DILUPBiCG:  Solving for Uz, Initial residual = 0.063783942, Final residual = 5.7744885e-05, No Iterations 1
DILUPBiCG:  Solving for h, Initial residual = 0.025577332, Final residual = 5.5874915e-05, No Iterations 1
MACARENA
GAMG:  Solving for p_rgh, Initial residual = 0.024545141, Final residual = 0.00017752065, No Iterations 3
MACARENA
MACARENA
time step continuity errors : sum local = 0.00010831221, global = 2.15759e-08, cumulative = 7.5877765e-07
ExecutionTime = 15.99 s  ClockTime = 16 s
Inflow      : 1.2242519e-10 [kg/s]
Outflow     : 1.2519738e-10 [kg/s]
EnergyInflow  : 3.6172017e-05 [W]
EnergyOutflow : 3.6997893e-05 [W]
rho max/avg/min : 1.2016456 1.20079 1.194567
T   max/avg/min : 295.40635 293.89278 293.7
P   max/avg/min : 101324.94 101319.11 101313.27
Prg max/avg/min : 101325 101325 101324.93
U   max/avg/min : 5.7664602e-06 7.0329623e-07 -5.2917785e-06
Prg max-min : 0.068347392
 
Iteration Number = 21

DILUPBiCG:  Solving for Ux, Initial residual = 0.034870464, Final residual = 3.1836012e-05, No Iterations 1
DILUPBiCG:  Solving for Uy, Initial residual = 0.032872724, Final residual = 3.4519451e-05, No Iterations 1
DILUPBiCG:  Solving for Uz, Initial residual = 0.061031243, Final residual = 5.0744658e-05, No Iterations 1
DILUPBiCG:  Solving for h, Initial residual = 0.024494134, Final residual = 5.5724559e-05, No Iterations 1
MACARENA
GAMG:  Solving for p_rgh, Initial residual = 0.024636561, Final residual = 0.00018630172, No Iterations 3
MACARENA
MACARENA
time step continuity errors : sum local = 0.00011445254, global = -5.7210743e-07, cumulative = 1.8667022e-07
ExecutionTime = 16.95 s  ClockTime = 17 s
Inflow      : 1.903217e-10 [kg/s]
Outflow     : 1.1681434e-10 [kg/s]
EnergyInflow  : 5.6232869e-05 [W]
EnergyOutflow : 3.4522257e-05 [W]
rho max/avg/min : 1.2016456 1.2007469 1.1943649
T   max/avg/min : 295.45635 293.90334 293.7
P   max/avg/min : 101324.94 101319.11 101313.27
Prg max/avg/min : 101325 101325 101324.93
U   max/avg/min : 5.9383834e-06 7.8719342e-07 -6.0155367e-06
Prg max-min : 0.07029802
 
Iteration Number = 22

DILUPBiCG:  Solving for Ux, Initial residual = 0.034733046, Final residual = 3.3954982e-05, No Iterations 1
DILUPBiCG:  Solving for Uy, Initial residual = 0.033014703, Final residual = 3.5473351e-05, No Iterations 1
DILUPBiCG:  Solving for Uz, Initial residual = 0.058860129, Final residual = 5.0164066e-05, No Iterations 1
DILUPBiCG:  Solving for h, Initial residual = 0.023507298, Final residual = 5.5564196e-05, No Iterations 1
MACARENA
GAMG:  Solving for p_rgh, Initial residual = 0.024736519, Final residual = 0.00019227241, No Iterations 3
MACARENA
MACARENA
time step continuity errors : sum local = 0.00011942702, global = 1.846302e-07, cumulative = 3.7130042e-07
ExecutionTime = 17.86 s  ClockTime = 18 s
Inflow      : 8.3875947e-11 [kg/s]
Outflow     : 1.075982e-10 [kg/s]
EnergyInflow  : 2.4782172e-05 [W]
EnergyOutflow : 3.1800621e-05 [W]
rho max/avg/min : 1.2016456 1.2007036 1.1941662
T   max/avg/min : 295.5055 293.91399 293.7
P   max/avg/min : 101324.94 101319.11 101313.27
Prg max/avg/min : 101325 101325 101324.93
U   max/avg/min : 6.4763763e-06 8.7470124e-07 -6.7961059e-06
Prg max-min : 0.072216665
 
Iteration Number = 23

DILUPBiCG:  Solving for Ux, Initial residual = 0.035492485, Final residual = 3.4096717e-05, No Iterations 1
DILUPBiCG:  Solving for Uy, Initial residual = 0.033362477, Final residual = 3.6943359e-05, No Iterations 1
DILUPBiCG:  Solving for Uz, Initial residual = 0.056845356, Final residual = 5.1310491e-05, No Iterations 1
DILUPBiCG:  Solving for h, Initial residual = 0.022605248, Final residual = 5.545961e-05, No Iterations 1
MACARENA
GAMG:  Solving for p_rgh, Initial residual = 0.025161834, Final residual = 0.00019913901, No Iterations 3
MACARENA
MACARENA
time step continuity errors : sum local = 0.00012467634, global = -9.9662923e-07, cumulative = -6.2532881e-07
ExecutionTime = 18.84 s  ClockTime = 19 s
Inflow      : 2.2571184e-10 [kg/s]
Outflow     : 9.7659687e-11 [kg/s]
EnergyInflow  : 6.6689317e-05 [W]
EnergyOutflow : 2.8865716e-05 [W]
rho max/avg/min : 1.2016456 1.2006599 1.1939708
T   max/avg/min : 295.55386 293.92473 293.7
P   max/avg/min : 101324.94 101319.11 101313.27
Prg max/avg/min : 101325 101325 101324.93
U   max/avg/min : 7.0704156e-06 9.6853511e-07 -7.5454533e-06
Prg max-min : 0.074094723
 
Iteration Number = 24

DILUPBiCG:  Solving for Ux, Initial residual = 0.035532444, Final residual = 3.6067383e-05, No Iterations 1
DILUPBiCG:  Solving for Uy, Initial residual = 0.033522509, Final residual = 3.8009264e-05, No Iterations 1
DILUPBiCG:  Solving for Uz, Initial residual = 0.055104378, Final residual = 5.1414144e-05, No Iterations 1
DILUPBiCG:  Solving for h, Initial residual = 0.021773412, Final residual = 5.53459e-05, No Iterations 1
MACARENA
GAMG:  Solving for p_rgh, Initial residual = 0.025471523, Final residual = 0.00020519104, No Iterations 3
MACARENA
MACARENA
time step continuity errors : sum local = 0.00012952095, global = -2.2915499e-08, cumulative = -6.4824431e-07
ExecutionTime = 19.58 s  ClockTime = 19 s
Inflow      : 8.7502558e-11 [kg/s]
Outflow     : 8.4558255e-11 [kg/s]
EnergyInflow  : 2.5853698e-05 [W]
EnergyOutflow : 2.4996464e-05 [W]
rho max/avg/min : 1.2016456 1.2006158 1.1937785
T   max/avg/min : 295.60148 293.93554 293.7
P   max/avg/min : 101324.94 101319.11 101313.27
Prg max/avg/min : 101325 101325 101324.92
U   max/avg/min : 7.690692e-06 1.0664514e-06 -8.4066313e-06
Prg max-min : 0.075947723
 
Iteration Number = 25

DILUPBiCG:  Solving for Ux, Initial residual = 0.035795482, Final residual = 3.5692253e-05, No Iterations 1
DILUPBiCG:  Solving for Uy, Initial residual = 0.033748672, Final residual = 3.9473169e-05, No Iterations 1
DILUPBiCG:  Solving for Uz, Initial residual = 0.053053546, Final residual = 5.0630416e-05, No Iterations 1
DILUPBiCG:  Solving for h, Initial residual = 0.021008366, Final residual = 5.5327807e-05, No Iterations 1
MACARENA
GAMG:  Solving for p_rgh, Initial residual = 0.025856185, Final residual = 0.00020968005, No Iterations 3
MACARENA
MACARENA
time step continuity errors : sum local = 0.00013347086, global = -8.185768e-07, cumulative = -1.4668211e-06
ExecutionTime = 20.31 s  ClockTime = 20 s
Inflow      : 1.8238125e-10 [kg/s]
Outflow     : 7.7206204e-11 [kg/s]
EnergyInflow  : 5.3886765e-05 [W]
EnergyOutflow : 2.2826138e-05 [W]
rho max/avg/min : 1.2016456 1.2005714 1.1935891
T   max/avg/min : 295.64839 293.94645 293.7
P   max/avg/min : 101324.94 101319.11 101313.27
Prg max/avg/min : 101325 101324.99 101324.92
U   max/avg/min : 8.3255111e-06 1.1699811e-06 -9.1965654e-06
Prg max-min : 0.077761655
 
Iteration Number = 26

DILUPBiCG:  Solving for Ux, Initial residual = 0.035941947, Final residual = 3.8176382e-05, No Iterations 1
DILUPBiCG:  Solving for Uy, Initial residual = 0.033900963, Final residual = 4.0627986e-05, No Iterations 1
DILUPBiCG:  Solving for Uz, Initial residual = 0.051367918, Final residual = 4.8651233e-05, No Iterations 1
DILUPBiCG:  Solving for h, Initial residual = 0.020298258, Final residual = 5.5366144e-05, No Iterations 1
MACARENA
GAMG:  Solving for p_rgh, Initial residual = 0.026112048, Final residual = 0.00021817858, No Iterations 3
MACARENA
MACARENA
time step continuity errors : sum local = 0.00014022238, global = 1.1640326e-07, cumulative = -1.3504179e-06
ExecutionTime = 21.03 s  ClockTime = 21 s
Inflow      : 4.6079158e-11 [kg/s]
Outflow     : 6.1035259e-11 [kg/s]
EnergyInflow  : 1.3614649e-05 [W]
EnergyOutflow : 1.8050378e-05 [W]
rho max/avg/min : 1.2016456 1.2005267 1.1934024
T   max/avg/min : 295.69465 293.95743 293.7
P   max/avg/min : 101324.94 101319.11 101313.27
Prg max/avg/min : 101325 101324.99 101324.92
U   max/avg/min : 8.9922161e-06 1.2772793e-06 -1.0104729e-05
Prg max-min : 0.079560103
 
Iteration Number = 27

DILUPBiCG:  Solving for Ux, Initial residual = 0.035699524, Final residual = 3.7217026e-05, No Iterations 1
DILUPBiCG:  Solving for Uy, Initial residual = 0.033815624, Final residual = 4.1476904e-05, No Iterations 1
DILUPBiCG:  Solving for Uz, Initial residual = 0.049778228, Final residual = 5.1157896e-05, No Iterations 1
DILUPBiCG:  Solving for h, Initial residual = 0.019641336, Final residual = 5.5436635e-05, No Iterations 1
MACARENA
GAMG:  Solving for p_rgh, Initial residual = 0.026524134, Final residual = 0.00022120293, No Iterations 3
MACARENA
MACARENA
time step continuity errors : sum local = 0.00014362371, global = -9.8142664e-07, cumulative = -2.3318445e-06
ExecutionTime = 21.74 s  ClockTime = 22 s
Inflow      : 1.7167421e-10 [kg/s]
Outflow     : 4.557536e-11 [kg/s]
EnergyInflow  : 5.0723239e-05 [W]
EnergyOutflow : 1.3484907e-05 [W]
rho max/avg/min : 1.2016456 1.2004817 1.1932182
T   max/avg/min : 295.7403 293.96849 293.7
P   max/avg/min : 101324.94 101319.11 101313.27
Prg max/avg/min : 101325 101324.99 101324.92
U   max/avg/min : 9.66928e-06 1.3905806e-06 -1.1044615e-05
Prg max-min : 0.0813202
 
Iteration Number = 28

DILUPBiCG:  Solving for Ux, Initial residual = 0.036140211, Final residual = 4.0105367e-05, No Iterations 1
DILUPBiCG:  Solving for Uy, Initial residual = 0.034299687, Final residual = 4.3348159e-05, No Iterations 1
DILUPBiCG:  Solving for Uz, Initial residual = 0.048286213, Final residual = 5.0182866e-05, No Iterations 1
DILUPBiCG:  Solving for h, Initial residual = 0.019031383, Final residual = 5.5550659e-05, No Iterations 1
MACARENA
GAMG:  Solving for p_rgh, Initial residual = 0.02662859, Final residual = 0.00022797662, No Iterations 3
MACARENA
MACARENA
time step continuity errors : sum local = 0.00014952167, global = 1.8957032e-08, cumulative = -2.3128875e-06
ExecutionTime = 22.45 s  ClockTime = 22 s
Inflow      : 1.5142304e-11 [kg/s]
Outflow     : 1.7578003e-11 [kg/s]
EnergyInflow  : 4.4739786e-06 [W]
EnergyOutflow : 5.2153442e-06 [W]
rho max/avg/min : 1.2016456 1.2004364 1.1930364
T   max/avg/min : 295.78536 293.97963 293.7
P   max/avg/min : 101324.94 101319.11 101313.27
Prg max/avg/min : 101325 101324.99 101324.92
U   max/avg/min : 1.0379226e-05 1.5076912e-06 -1.198521e-05
Prg max-min : 0.083071935
 
Iteration Number = 29

DILUPBiCG:  Solving for Ux, Initial residual = 0.035605518, Final residual = 3.8805617e-05, No Iterations 1
DILUPBiCG:  Solving for Uy, Initial residual = 0.034139855, Final residual = 4.4000644e-05, No Iterations 1
DILUPBiCG:  Solving for Uz, Initial residual = 0.046747026, Final residual = 5.0262012e-05, No Iterations 1
DILUPBiCG:  Solving for h, Initial residual = 0.018461914, Final residual = 5.5681846e-05, No Iterations 1
MACARENA
GAMG:  Solving for p_rgh, Initial residual = 0.027257016, Final residual = 0.00022640767, No Iterations 3
MACARENA
MACARENA
time step continuity errors : sum local = 0.00015060969, global = 5.2690001e-07, cumulative = -1.7859874e-06
ExecutionTime = 23.17 s  ClockTime = 23 s
Inflow      : -7.4658071e-11 [kg/s]
Outflow     : -6.9591922e-12 [kg/s]
EnergyInflow  : -2.2058638e-05 [W]
EnergyOutflow : -2.031653e-06 [W]
rho max/avg/min : 1.2016456 1.2003907 1.192857
T   max/avg/min : 295.82986 293.99085 293.7
P   max/avg/min : 101324.94 101319.11 101313.27
Prg max/avg/min : 101325 101324.99 101324.92
U   max/avg/min : 1.1161182e-05 1.6268412e-06 -1.2910534e-05
Prg max-min : 0.084775866
 
Iteration Number = 30

DILUPBiCG:  Solving for Ux, Initial residual = 0.035980832, Final residual = 4.087007e-05, No Iterations 1
DILUPBiCG:  Solving for Uy, Initial residual = 0.034191644, Final residual = 4.4571797e-05, No Iterations 1
DILUPBiCG:  Solving for Uz, Initial residual = 0.045477992, Final residual = 5.3113515e-05, No Iterations 1
DILUPBiCG:  Solving for h, Initial residual = 0.01793098, Final residual = 5.5810168e-05, No Iterations 1
MACARENA
GAMG:  Solving for p_rgh, Initial residual = 0.027676387, Final residual = 0.00024002115, No Iterations 3
MACARENA
MACARENA
time step continuity errors : sum local = 0.00016117863, global = -1.2961792e-06, cumulative = -3.0821666e-06
ExecutionTime = 23.97 s  ClockTime = 24 s
Inflow      : 1.1260355e-10 [kg/s]
Outflow     : -5.3936358e-11 [kg/s]
EnergyInflow  : 3.3270092e-05 [W]
EnergyOutflow : -1.590851e-05 [W]
rho max/avg/min : 1.2016456 1.2003448 1.1926797
T   max/avg/min : 295.87384 294.00214 293.7
P   max/avg/min : 101324.94 101319.11 101313.27
Prg max/avg/min : 101325 101324.99 101324.91
U   max/avg/min : 1.1966463e-05 1.7523138e-06 -1.3915898e-05
Prg max-min : 0.086481155
 
Iteration Number = 31

DILUPBiCG:  Solving for Ux, Initial residual = 0.03568064, Final residual = 4.0165004e-05, No Iterations 1
DILUPBiCG:  Solving for Uy, Initial residual = 0.03450151, Final residual = 4.6154669e-05, No Iterations 1
DILUPBiCG:  Solving for Uz, Initial residual = 0.044347071, Final residual = 5.3572234e-05, No Iterations 1
DILUPBiCG:  Solving for h, Initial residual = 0.01743111, Final residual = 5.5920583e-05, No Iterations 1
MACARENA
GAMG:  Solving for p_rgh, Initial residual = 0.028049478, Final residual = 0.00023327538, No Iterations 3
MACARENA
MACARENA
time step continuity errors : sum local = 0.00015946413, global = 3.9375261e-07, cumulative = -2.688414e-06
ExecutionTime = 24.69 s  ClockTime = 25 s
Inflow      : -1.4211973e-10 [kg/s]
Outflow     : -9.1528329e-11 [kg/s]
EnergyInflow  : -4.1991008e-05 [W]
EnergyOutflow : -2.7012192e-05 [W]
rho max/avg/min : 1.2016456 1.2002985 1.1925044
T   max/avg/min : 295.91732 294.0135 293.7
P   max/avg/min : 101324.94 101319.11 101313.27
Prg max/avg/min : 101325 101324.99 101324.91
U   max/avg/min : 1.279548e-05 1.8783114e-06 -1.4881939e-05
Prg max-min : 0.088136896
 
Iteration Number = 32

DILUPBiCG:  Solving for Ux, Initial residual = 0.036121218, Final residual = 4.2701627e-05, No Iterations 1
DILUPBiCG:  Solving for Uy, Initial residual = 0.03446081, Final residual = 4.7417299e-05, No Iterations 1
DILUPBiCG:  Solving for Uz, Initial residual = 0.04310241, Final residual = 5.7494478e-05, No Iterations 1
DILUPBiCG:  Solving for h, Initial residual = 0.016961893, Final residual = 5.6051887e-05, No Iterations 1
MACARENA
GAMG:  Solving for p_rgh, Initial residual = 0.02854521, Final residual = 0.00024337716, No Iterations 3
MACARENA
MACARENA
time step continuity errors : sum local = 0.00016787142, global = -1.4065663e-06, cumulative = -4.0949803e-06
ExecutionTime = 25.4 s  ClockTime = 25 s
Inflow      : 3.2302069e-11 [kg/s]
Outflow     : -1.4842096e-10 [kg/s]
EnergyInflow  : 9.5440402e-06 [W]
EnergyOutflow : -4.3818119e-05 [W]
rho max/avg/min : 1.2016456 1.200252 1.1923312
T   max/avg/min : 295.96033 294.02494 293.7
P   max/avg/min : 101324.94 101319.11 101313.27
Prg max/avg/min : 101325 101324.99 101324.91
U   max/avg/min : 1.3649135e-05 2.0087917e-06 -1.6049515e-05
Prg max-min : 0.089799798
 
Iteration Number = 33

DILUPBiCG:  Solving for Ux, Initial residual = 0.035470975, Final residual = 4.162591e-05, No Iterations 1
DILUPBiCG:  Solving for Uy, Initial residual = 0.034903842, Final residual = 4.8760825e-05, No Iterations 1
DILUPBiCG:  Solving for Uz, Initial residual = 0.041909214, Final residual = 5.589105e-05, No Iterations 1
DILUPBiCG:  Solving for h, Initial residual = 0.016519899, Final residual = 5.615391e-05, No Iterations 1
MACARENA
GAMG:  Solving for p_rgh, Initial residual = 0.028654355, Final residual = 0.00023719881, No Iterations 3
MACARENA
MACARENA
time step continuity errors : sum local = 0.00016683766, global = -3.4251725e-07, cumulative = -4.4374976e-06
ExecutionTime = 26.2 s  ClockTime = 26 s
Inflow      : -1.5021465e-10 [kg/s]
Outflow     : -1.9422306e-10 [kg/s]
EnergyInflow  : -4.438275e-05 [W]
EnergyOutflow : -5.7346949e-05 [W]
rho max/avg/min : 1.2016456 1.2002052 1.1921598
T   max/avg/min : 296.00288 294.03646 293.7
P   max/avg/min : 101324.94 101319.11 101313.27
Prg max/avg/min : 101325 101324.99 101324.91
U   max/avg/min : 1.452161e-05 2.1423808e-06 -1.7185555e-05
Prg max-min : 0.091414441
 
Iteration Number = 34

DILUPBiCG:  Solving for Ux, Initial residual = 0.036270933, Final residual = 4.4442195e-05, No Iterations 1
DILUPBiCG:  Solving for Uy, Initial residual = 0.034723507, Final residual = 4.8887903e-05, No Iterations 1
DILUPBiCG:  Solving for Uz, Initial residual = 0.040676652, Final residual = 5.6264517e-05, No Iterations 1
DILUPBiCG:  Solving for h, Initial residual = 0.016102719, Final residual = 5.6263455e-05, No Iterations 1
MACARENA
GAMG:  Solving for p_rgh, Initial residual = 0.029112744, Final residual = 0.00024191414, No Iterations 3
MACARENA
MACARENA
time step continuity errors : sum local = 0.00017182959, global = -6.3675587e-08, cumulative = -4.5011732e-06
ExecutionTime = 27.04 s  ClockTime = 27 s
Inflow      : -2.4894435e-10 [kg/s]
Outflow     : -2.5712572e-10 [kg/s]
EnergyInflow  : -7.3553646e-05 [W]
EnergyOutflow : -7.5927991e-05 [W]
rho max/avg/min : 1.2016456 1.2001581 1.1919902
T   max/avg/min : 296.04499 294.04804 293.7
P   max/avg/min : 101324.94 101319.11 101313.27
Prg max/avg/min : 101325 101324.99 101324.91
U   max/avg/min : 1.5449799e-05 2.2767714e-06 -1.8427603e-05
Prg max-min : 0.093040431
 
Iteration Number = 35

DILUPBiCG:  Solving for Ux, Initial residual = 0.035476412, Final residual = 4.3166697e-05, No Iterations 1
DILUPBiCG:  Solving for Uy, Initial residual = 0.035044633, Final residual = 4.9501978e-05, No Iterations 1
DILUPBiCG:  Solving for Uz, Initial residual = 0.039670109, Final residual = 5.848013e-05, No Iterations 1
DILUPBiCG:  Solving for h, Initial residual = 0.015709047, Final residual = 5.6347023e-05, No Iterations 1
MACARENA
GAMG:  Solving for p_rgh, Initial residual = 0.029476286, Final residual = 0.00024430665, No Iterations 3
MACARENA
MACARENA
time step continuity errors : sum local = 0.00017606674, global = 8.025813e-08, cumulative = -4.4209151e-06
ExecutionTime = 27.77 s  ClockTime = 28 s
Inflow      : -3.2014662e-10 [kg/s]
Outflow     : -3.0983463e-10 [kg/s]
EnergyInflow  : -9.4591224e-05 [W]
EnergyOutflow : -9.1496832e-05 [W]
rho max/avg/min : 1.2016456 1.2001107 1.1918223
T   max/avg/min : 296.08669 294.05969 293.7
P   max/avg/min : 101324.94 101319.11 101313.27
Prg max/avg/min : 101325 101324.99 101324.91
U   max/avg/min : 1.6437933e-05 2.4120639e-06 -1.9663317e-05
Prg max-min : 0.094611127
 
Iteration Number = 36

DILUPBiCG:  Solving for Ux, Initial residual = 0.036340676, Final residual = 4.6383355e-05, No Iterations 1
DILUPBiCG:  Solving for Uy, Initial residual = 0.034760995, Final residual = 4.989275e-05, No Iterations 1
DILUPBiCG:  Solving for Uz, Initial residual = 0.038650031, Final residual = 5.9511015e-05, No Iterations 1
DILUPBiCG:  Solving for h, Initial residual = 0.015337121, Final residual = 5.6458342e-05, No Iterations 1
MACARENA
GAMG:  Solving for p_rgh, Initial residual = 0.029666915, Final residual = 0.00024259096, No Iterations 3
MACARENA
MACARENA
time step continuity errors : sum local = 0.00017776377, global = 1.2603754e-08, cumulative = -4.4083113e-06
ExecutionTime = 28.65 s  ClockTime = 28 s
Inflow      : -3.8072127e-10 [kg/s]
Outflow     : -3.7910187e-10 [kg/s]
EnergyInflow  : -0.00011248874 [W]
EnergyOutflow : -0.00011195763 [W]
rho max/avg/min : 1.2016456 1.200063 1.1916561
T   max/avg/min : 296.128 294.07142 293.7
P   max/avg/min : 101324.94 101319.11 101313.27
Prg max/avg/min : 101325 101324.99 101324.9
U   max/avg/min : 1.7453137e-05 2.547819e-06 -2.1051879e-05
Prg max-min : 0.096204069
 
Iteration Number = 37

DILUPBiCG:  Solving for Ux, Initial residual = 0.035266845, Final residual = 4.5268998e-05, No Iterations 1
DILUPBiCG:  Solving for Uy, Initial residual = 0.034891269, Final residual = 4.926448e-05, No Iterations 1
DILUPBiCG:  Solving for Uz, Initial residual = 0.037683286, Final residual = 6.1370582e-05, No Iterations 1
DILUPBiCG:  Solving for h, Initial residual = 0.01498476, Final residual = 5.6560832e-05, No Iterations 1
MACARENA
GAMG:  Solving for p_rgh, Initial residual = 0.030364415, Final residual = 0.00024991085, No Iterations 3
MACARENA
MACARENA
time step continuity errors : sum local = 0.00018582562, global = 1.5340171e-08, cumulative = -4.3929711e-06
ExecutionTime = 29.65 s  ClockTime = 29 s
Inflow      : -4.4642508e-10 [kg/s]
Outflow     : -4.4445409e-10 [kg/s]
EnergyInflow  : -0.00013190174 [W]
EnergyOutflow : -0.00013126135 [W]
rho max/avg/min : 1.2016456 1.2000151 1.1914915
T   max/avg/min : 296.16892 294.08321 293.7
P   max/avg/min : 101324.94 101319.11 101313.27
Prg max/avg/min : 101325 101324.99 101324.9
U   max/avg/min : 1.8492717e-05 2.6842162e-06 -2.2564068e-05
Prg max-min : 0.097765667
 
Iteration Number = 38

DILUPBiCG:  Solving for Ux, Initial residual = 0.036312326, Final residual = 4.8221979e-05, No Iterations 1
DILUPBiCG:  Solving for Uy, Initial residual = 0.034941789, Final residual = 5.1486179e-05, No Iterations 1
DILUPBiCG:  Solving for Uz, Initial residual = 0.036752836, Final residual = 6.2375222e-05, No Iterations 1
DILUPBiCG:  Solving for h, Initial residual = 0.014650384, Final residual = 5.6706555e-05, No Iterations 1
MACARENA
GAMG:  Solving for p_rgh, Initial residual = 0.03072789, Final residual = 0.00024324805, No Iterations 3
MACARENA
MACARENA
time step continuity errors : sum local = 0.00018265168, global = -6.0569593e-08, cumulative = -4.4535407e-06
ExecutionTime = 30.69 s  ClockTime = 31 s
Inflow      : -5.1239545e-10 [kg/s]
Outflow     : -5.2017775e-10 [kg/s]
EnergyInflow  : -0.00015139349 [W]
EnergyOutflow : -0.00015362899 [W]
rho max/avg/min : 1.2016456 1.1999669 1.1913283
T   max/avg/min : 296.20947 294.09507 293.7
P   max/avg/min : 101324.94 101319.11 101313.27
Prg max/avg/min : 101325 101324.99 101324.9
U   max/avg/min : 1.9559275e-05 2.8207731e-06 -2.6021531e-05
Prg max-min : 0.099387609
 
Iteration Number = 39

DILUPBiCG:  Solving for Ux, Initial residual = 0.035052962, Final residual = 4.7182152e-05, No Iterations 1
DILUPBiCG:  Solving for Uy, Initial residual = 0.034675494, Final residual = 5.05611e-05, No Iterations 1
DILUPBiCG:  Solving for Uz, Initial residual = 0.035845777, Final residual = 6.4256772e-05, No Iterations 1
DILUPBiCG:  Solving for h, Initial residual = 0.014332899, Final residual = 5.682195e-05, No Iterations 1
MACARENA
GAMG:  Solving for p_rgh, Initial residual = 0.030971741, Final residual = 0.00025075815, No Iterations 3
MACARENA
MACARENA
time step continuity errors : sum local = 0.00019218743, global = -1.1668967e-07, cumulative = -4.5702304e-06
ExecutionTime = 31.55 s  ClockTime = 31 s
Inflow      : -5.8631079e-10 [kg/s]
Outflow     : -6.013037e-10 [kg/s]
EnergyInflow  : -0.00017323268 [W]
EnergyOutflow : -0.00017759246 [W]
rho max/avg/min : 1.2016456 1.1999184 1.1911667
T   max/avg/min : 296.24968 294.10699 293.7
P   max/avg/min : 101324.94 101319.11 101313.27
Prg max/avg/min : 101325 101324.99 101324.9
U   max/avg/min : 2.0664014e-05 2.9576241e-06 -2.8534488e-05
Prg max-min : 0.10092759
 
Iteration Number = 40

DILUPBiCG:  Solving for Ux, Initial residual = 0.036227891, Final residual = 5.0037394e-05, No Iterations 1
DILUPBiCG:  Solving for Uy, Initial residual = 0.034999609, Final residual = 5.4149766e-05, No Iterations 1
DILUPBiCG:  Solving for Uz, Initial residual = 0.034976348, Final residual = 6.4835189e-05, No Iterations 1
DILUPBiCG:  Solving for h, Initial residual = 0.014030493, Final residual = 5.697191e-05, No Iterations 1
MACARENA
GAMG:  Solving for p_rgh, Initial residual = 0.03125872, Final residual = 0.00024132596, No Iterations 3
MACARENA
MACARENA
time step continuity errors : sum local = 0.00018790483, global = -2.2092726e-07, cumulative = -4.7911577e-06
ExecutionTime = 32.43 s  ClockTime = 32 s
Inflow      : -6.5715554e-10 [kg/s]
Outflow     : -6.8554143e-10 [kg/s]
EnergyInflow  : -0.00019416462 [W]
EnergyOutflow : -0.00020247487 [W]
rho max/avg/min : 1.2016456 1.1998697 1.1910065
T   max/avg/min : 296.28954 294.11898 293.7
P   max/avg/min : 101324.94 101319.11 101313.27
Prg max/avg/min : 101325 101324.99 101324.9
U   max/avg/min : 2.1851554e-05 3.0942943e-06 -3.2608631e-05
Prg max-min : 0.10252406
 
Iteration Number = 41

DILUPBiCG:  Solving for Ux, Initial residual = 0.034829099, Final residual = 4.8872761e-05, No Iterations 1
DILUPBiCG:  Solving for Uy, Initial residual = 0.034405771, Final residual = 5.1708651e-05, No Iterations 1
DILUPBiCG:  Solving for Uz, Initial residual = 0.03414232, Final residual = 6.6318824e-05, No Iterations 1
DILUPBiCG:  Solving for h, Initial residual = 0.013741946, Final residual = 5.7101714e-05, No Iterations 1
MACARENA
GAMG:  Solving for p_rgh, Initial residual = 0.031851122, Final residual = 0.00025360569, No Iterations 3
MACARENA
MACARENA
time step continuity errors : sum local = 0.00020065024, global = -3.7696571e-07, cumulative = -5.1681234e-06
ExecutionTime = 33.42 s  ClockTime = 33 s
Inflow      : -7.3299147e-10 [kg/s]
Outflow     : -7.81426e-10 [kg/s]
EnergyInflow  : -0.00021657127 [W]
EnergyOutflow : -0.00023079812 [W]
rho max/avg/min : 1.2016456 1.1998207 1.1908476
T   max/avg/min : 296.32907 294.13103 293.7
P   max/avg/min : 101324.94 101319.11 101313.27
Prg max/avg/min : 101325 101324.99 101324.9
U   max/avg/min : 2.3070516e-05 3.2309454e-06 -3.5542272e-05
Prg max-min : 0.10403839
 
Iteration Number = 42

DILUPBiCG:  Solving for Ux, Initial residual = 0.036041015, Final residual = 5.1859461e-05, No Iterations 1
DILUPBiCG:  Solving for Uy, Initial residual = 0.034991005, Final residual = 5.5762695e-05, No Iterations 1
DILUPBiCG:  Solving for Uz, Initial residual = 0.033343745, Final residual = 6.6669365e-05, No Iterations 1
DILUPBiCG:  Solving for h, Initial residual = 0.013466824, Final residual = 5.724844e-05, No Iterations 1
MACARENA
GAMG:  Solving for p_rgh, Initial residual = 0.031807396, Final residual = 0.00023809026, No Iterations 3
MACARENA
MACARENA
time step continuity errors : sum local = 0.00019153009, global = -6.1141113e-07, cumulative = -5.7795345e-06
ExecutionTime = 34.42 s  ClockTime = 34 s
Inflow      : -8.0517573e-10 [kg/s]
Outflow     : -8.8373304e-10 [kg/s]
EnergyInflow  : -0.00023789899 [W]
EnergyOutflow : -0.00026101837 [W]
rho max/avg/min : 1.2016456 1.1997715 1.19069
T   max/avg/min : 296.36829 294.14315 293.7
P   max/avg/min : 101324.94 101319.11 101313.27
Prg max/avg/min : 101325 101324.99 101324.9
U   max/avg/min : 2.4325011e-05 3.366873e-06 -4.0015959e-05
Prg max-min : 0.10561287
 
Iteration Number = 43

DILUPBiCG:  Solving for Ux, Initial residual = 0.034463264, Final residual = 5.0605792e-05, No Iterations 1
DILUPBiCG:  Solving for Uy, Initial residual = 0.034189651, Final residual = 5.1755386e-05, No Iterations 1
DILUPBiCG:  Solving for Uz, Initial residual = 0.032553989, Final residual = 6.7823677e-05, No Iterations 1
DILUPBiCG:  Solving for h, Initial residual = 0.013204023, Final residual = 5.7372396e-05, No Iterations 1
MACARENA
GAMG:  Solving for p_rgh, Initial residual = 0.031918094, Final residual = 0.00025178923, No Iterations 3
MACARENA
MACARENA
time step continuity errors : sum local = 0.00020602072, global = -7.8313236e-07, cumulative = -6.5626669e-06
ExecutionTime = 35.44 s  ClockTime = 35 s
Inflow      : -8.8467968e-10 [kg/s]
Outflow     : -9.8530064e-10 [kg/s]
EnergyInflow  : -0.0002613894 [W]
EnergyOutflow : -0.00029101989 [W]
rho max/avg/min : 1.2016456 1.199722 1.1905337
T   max/avg/min : 296.40721 294.15532 293.7
P   max/avg/min : 101324.94 101319.11 101313.27
Prg max/avg/min : 101325 101324.99 101324.89
U   max/avg/min : 2.5594666e-05 3.5024005e-06 -4.3454947e-05
Prg max-min : 0.1070996
 
Iteration Number = 44

DILUPBiCG:  Solving for Ux, Initial residual = 0.035576314, Final residual = 5.2875331e-05, No Iterations 1
DILUPBiCG:  Solving for Uy, Initial residual = 0.034415044, Final residual = 5.6338543e-05, No Iterations 1
DILUPBiCG:  Solving for Uz, Initial residual = 0.031780621, Final residual = 6.7792137e-05, No Iterations 1
DILUPBiCG:  Solving for h, Initial residual = 0.012952291, Final residual = 5.7492034e-05, No Iterations 1
MACARENA
GAMG:  Solving for p_rgh, Initial residual = 0.031919567, Final residual = 0.00024248201, No Iterations 3
MACARENA
MACARENA
time step continuity errors : sum local = 0.00020186213, global = 1.6341684e-06, cumulative = -4.9284985e-06
ExecutionTime = 36.42 s  ClockTime = 36 s
Inflow      : -1.3181602e-09 [kg/s]
Outflow     : -1.1081936e-09 [kg/s]
EnergyInflow  : -0.00038946651 [W]
EnergyOutflow : -0.00032732153 [W]
rho max/avg/min : 1.2016456 1.1996723 1.1903786
T   max/avg/min : 296.44582 294.16756 293.7
P   max/avg/min : 101324.94 101319.11 101313.27
Prg max/avg/min : 101325 101324.99 101324.89
U   max/avg/min : 2.6924166e-05 3.6305232e-06 -5.3580171e-05
Prg max-min : 0.10864832
 
Iteration Number = 45

DILUPBiCG:  Solving for Ux, Initial residual = 0.034167442, Final residual = 5.2276335e-05, No Iterations 1
DILUPBiCG:  Solving for Uy, Initial residual = 0.033761315, Final residual = 5.1458518e-05, No Iterations 1
DILUPBiCG:  Solving for Uz, Initial residual = 0.03115385, Final residual = 7.1860016e-05, No Iterations 1
DILUPBiCG:  Solving for h, Initial residual = 0.012711866, Final residual = 5.760335e-05, No Iterations 1
MACARENA
GAMG:  Solving for p_rgh, Initial residual = 0.032238524, Final residual = 0.00024629344, No Iterations 3
MACARENA
MACARENA
time step continuity errors : sum local = 0.00020875904, global = -1.9015097e-07, cumulative = -5.1186495e-06
ExecutionTime = 37.29 s  ClockTime = 37 s
Inflow      : -1.1997939e-09 [kg/s]
Outflow     : -1.2242255e-09 [kg/s]
EnergyInflow  : -0.00035449374 [W]
EnergyOutflow : -0.00036159567 [W]
rho max/avg/min : 1.2016456 1.1996224 1.1902247
T   max/avg/min : 296.48416 294.17986 293.7
P   max/avg/min : 101324.94 101319.11 101313.27
Prg max/avg/min : 101325 101324.99 101324.89
U   max/avg/min : 2.8310761e-05 3.7553385e-06 -5.3877893e-05
Prg max-min : 0.11011457
 
Iteration Number = 46

DILUPBiCG:  Solving for Ux, Initial residual = 0.035209752, Final residual = 5.419639e-05, No Iterations 1
DILUPBiCG:  Solving for Uy, Initial residual = 0.033776813, Final residual = 5.4609079e-05, No Iterations 1
DILUPBiCG:  Solving for Uz, Initial residual = 0.030396773, Final residual = 7.0383935e-05, No Iterations 1
DILUPBiCG:  Solving for h, Initial residual = 0.012481315, Final residual = 5.7703894e-05, No Iterations 1
MACARENA
GAMG:  Solving for p_rgh, Initial residual = 0.032442677, Final residual = 0.00023735107, No Iterations 3
MACARENA
MACARENA
time step continuity errors : sum local = 0.00020486425, global = -9.9944667e-07, cumulative = -6.1180961e-06
ExecutionTime = 38.05 s  ClockTime = 38 s
Inflow      : -1.2282459e-09 [kg/s]
Outflow     : -1.3566601e-09 [kg/s]
EnergyInflow  : -0.00036290024 [W]
EnergyOutflow : -0.00040071552 [W]
rho max/avg/min : 1.2016456 1.1995722 1.190072
T   max/avg/min : 296.52222 294.19222 293.7
P   max/avg/min : 101324.94 101319.11 101313.27
Prg max/avg/min : 101325 101324.99 101324.89
U   max/avg/min : 2.9778334e-05 3.8783374e-06 -5.7836553e-05
Prg max-min : 0.11163864
 
Iteration Number = 47

DILUPBiCG:  Solving for Ux, Initial residual = 0.033865976, Final residual = 5.3617117e-05, No Iterations 1
DILUPBiCG:  Solving for Uy, Initial residual = 0.033602981, Final residual = 5.3548874e-05, No Iterations 1
DILUPBiCG:  Solving for Uz, Initial residual = 0.029704871, Final residual = 7.0902113e-05, No Iterations 1
DILUPBiCG:  Solving for h, Initial residual = 0.01226034, Final residual = 5.7796781e-05, No Iterations 1
MACARENA
GAMG:  Solving for p_rgh, Initial residual = 0.03269943, Final residual = 0.00024137655, No Iterations 3
MACARENA
MACARENA
time step continuity errors : sum local = 0.00021227462, global = -1.4429137e-06, cumulative = -7.5610099e-06
ExecutionTime = 38.8 s  ClockTime = 39 s
Inflow      : -1.3087949e-09 [kg/s]
Outflow     : -1.494188e-09 [kg/s]
EnergyInflow  : -0.00038669941 [W]
EnergyOutflow : -0.00044133984 [W]
rho max/avg/min : 1.2016456 1.1995217 1.1899204
T   max/avg/min : 296.56001 294.20464 293.7
P   max/avg/min : 101324.94 101319.11 101313.27
Prg max/avg/min : 101325 101324.99 101324.89
U   max/avg/min : 3.1230174e-05 3.9998176e-06 -6.2364895e-05
Prg max-min : 0.11308178
 
Iteration Number = 48

DILUPBiCG:  Solving for Ux, Initial residual = 0.035022729, Final residual = 5.5971444e-05, No Iterations 1
DILUPBiCG:  Solving for Uy, Initial residual = 0.03337384, Final residual = 5.4461461e-05, No Iterations 1
DILUPBiCG:  Solving for Uz, Initial residual = 0.029044001, Final residual = 7.0498181e-05, No Iterations 1
DILUPBiCG:  Solving for h, Initial residual = 0.012048592, Final residual = 5.788041e-05, No Iterations 1
MACARENA
GAMG:  Solving for p_rgh, Initial residual = 0.033228523, Final residual = 0.00024707974, No Iterations 3
MACARENA
MACARENA
time step continuity errors : sum local = 0.00022146393, global = 3.4852464e-06, cumulative = -4.0757634e-06
ExecutionTime = 39.53 s  ClockTime = 39 s
Inflow      : -2.0874335e-09 [kg/s]
Outflow     : -1.6396308e-09 [kg/s]
EnergyInflow  : -0.00061675771 [W]
EnergyOutflow : -0.00048430213 [W]
rho max/avg/min : 1.2016456 1.1994711 1.1897698
T   max/avg/min : 296.59754 294.21712 293.7
P   max/avg/min : 101324.94 101319.11 101313.27
Prg max/avg/min : 101325 101324.99 101324.89
U   max/avg/min : 3.2756749e-05 4.1069223e-06 -7.9970648e-05
Prg max-min : 0.1145869
 
Iteration Number = 49

DILUPBiCG:  Solving for Ux, Initial residual = 0.033846658, Final residual = 5.5881061e-05, No Iterations 1
DILUPBiCG:  Solving for Uy, Initial residual = 0.034012188, Final residual = 5.8800215e-05, No Iterations 1
DILUPBiCG:  Solving for Uz, Initial residual = 0.028569151, Final residual = 7.6429369e-05, No Iterations 1
DILUPBiCG:  Solving for h, Initial residual = 0.011844831, Final residual = 5.796416e-05, No Iterations 1
MACARENA
GAMG:  Solving for p_rgh, Initial residual = 0.033159376, Final residual = 0.00025227727, No Iterations 3
MACARENA
MACARENA
time step continuity errors : sum local = 0.00023049499, global = 5.2050465e-06, cumulative = 1.1292831e-06
ExecutionTime = 40.3 s  ClockTime = 40 s
Inflow      : -2.4674094e-09 [kg/s]
Outflow     : -1.7986377e-09 [kg/s]
EnergyInflow  : -0.00072902622 [W]
EnergyOutflow : -0.00053127158 [W]
rho max/avg/min : 1.2016456 1.1994202 1.1896203
T   max/avg/min : 296.63482 294.22965 293.7
P   max/avg/min : 101324.94 101319.11 101313.27
Prg max/avg/min : 101325 101324.99 101324.89
U   max/avg/min : 3.4274483e-05 4.2030025e-06 -9.1864905e-05
Prg max-min : 0.11600259
 
Iteration Number = 50

DILUPBiCG:  Solving for Ux, Initial residual = 0.03477512, Final residual = 5.8916144e-05, No Iterations 1
DILUPBiCG:  Solving for Uy, Initial residual = 0.033367994, Final residual = 5.6704083e-05, No Iterations 1
DILUPBiCG:  Solving for Uz, Initial residual = 0.027952554, Final residual = 7.5699061e-05, No Iterations 1
DILUPBiCG:  Solving for h, Initial residual = 0.011648947, Final residual = 5.8035437e-05, No Iterations 1
MACARENA
GAMG:  Solving for p_rgh, Initial residual = 0.033635172, Final residual = 0.00023459127, No Iterations 3
MACARENA
MACARENA
time step continuity errors : sum local = 0.00021861485, global = -1.6006036e-06, cumulative = -4.7132059e-07
ExecutionTime = 41.07 s  ClockTime = 41 s
Inflow      : -1.7511321e-09 [kg/s]
Outflow     : -1.956786e-09 [kg/s]
EnergyInflow  : -0.00051739333 [W]
EnergyOutflow : -0.00057798674 [W]
rho max/avg/min : 1.2016456 1.1993691 1.1894718
T   max/avg/min : 296.67185 294.24224 293.7
P   max/avg/min : 101324.94 101319.11 101313.27
Prg max/avg/min : 101325 101324.99 101324.88
U   max/avg/min : 3.5913055e-05 4.3088723e-06 -8.3328574e-05
Prg max-min : 0.11750352
 
Iteration Number = 51

DILUPBiCG:  Solving for Ux, Initial residual = 0.033495657, Final residual = 5.6834362e-05, No Iterations 1
DILUPBiCG:  Solving for Uy, Initial residual = 0.033998553, Final residual = 6.3299403e-05, No Iterations 1
DILUPBiCG:  Solving for Uz, Initial residual = 0.027429581, Final residual = 7.4555305e-05, No Iterations 1
DILUPBiCG:  Solving for h, Initial residual = 0.011460683, Final residual = 5.8120376e-05, No Iterations 1
MACARENA
GAMG:  Solving for p_rgh, Initial residual = 0.03336471, Final residual = 0.0002208941, No Iterations 3
MACARENA
MACARENA
time step continuity errors : sum local = 0.00021002617, global = -1.3913902e-06, cumulative = -1.8627108e-06
ExecutionTime = 41.82 s  ClockTime = 42 s
Inflow      : -1.9589613e-09 [kg/s]
Outflow     : -2.1377344e-09 [kg/s]
EnergyInflow  : -0.00057879901 [W]
EnergyOutflow : -0.00063143782 [W]
rho max/avg/min : 1.2016456 1.1993178 1.1893243
T   max/avg/min : 296.70865 294.25488 293.7
P   max/avg/min : 101324.94 101319.11 101313.27
Prg max/avg/min : 101325 101324.99 101324.88
U   max/avg/min : 3.7574873e-05 4.4060811e-06 -8.6191056e-05
Prg max-min : 0.11889586
 
Iteration Number = 52

DILUPBiCG:  Solving for Ux, Initial residual = 0.034369024, Final residual = 6.0249836e-05, No Iterations 1
DILUPBiCG:  Solving for Uy, Initial residual = 0.033009802, Final residual = 5.8170288e-05, No Iterations 1
DILUPBiCG:  Solving for Uz, Initial residual = 0.026702608, Final residual = 7.3328825e-05, No Iterations 1
DILUPBiCG:  Solving for h, Initial residual = 0.011278996, Final residual = 5.820748e-05, No Iterations 1
MACARENA
GAMG:  Solving for p_rgh, Initial residual = 0.033785469, Final residual = 0.00024480263, No Iterations 3
MACARENA
MACARENA
time step continuity errors : sum local = 0.00023762911, global = 4.4826902e-06, cumulative = 2.6199794e-06
ExecutionTime = 42.57 s  ClockTime = 42 s
Inflow      : -2.891068e-09 [kg/s]
Outflow     : -2.3151085e-09 [kg/s]
EnergyInflow  : -0.00085420132 [W]
EnergyOutflow : -0.00068383241 [W]
rho max/avg/min : 1.2016456 1.1992662 1.1891778
T   max/avg/min : 296.74522 294.26758 293.7
P   max/avg/min : 101324.94 101319.11 101313.27
Prg max/avg/min : 101325 101324.99 101324.88
U   max/avg/min : 3.9308517e-05 4.4787535e-06 -0.00010777951
Prg max-min : 0.12036507
 
Iteration Number = 53

DILUPBiCG:  Solving for Ux, Initial residual = 0.03325437, Final residual = 5.8342531e-05, No Iterations 1
DILUPBiCG:  Solving for Uy, Initial residual = 0.033998407, Final residual = 6.7067727e-05, No Iterations 1
DILUPBiCG:  Solving for Uz, Initial residual = 0.026297262, Final residual = 7.8490257e-05, No Iterations 1
DILUPBiCG:  Solving for h, Initial residual = 0.011104013, Final residual = 5.8300322e-05, No Iterations 1
MACARENA
GAMG:  Solving for p_rgh, Initial residual = 0.033197918, Final residual = 0.00024827976, No Iterations 3
MACARENA
MACARENA
time step continuity errors : sum local = 0.00024576791, global = 7.2641804e-06, cumulative = 9.8841598e-06
ExecutionTime = 43.34 s  ClockTime = 43 s
Inflow      : -3.4501207e-09 [kg/s]
Outflow     : -2.5167807e-09 [kg/s]
EnergyInflow  : -0.0010193803 [W]
EnergyOutflow : -0.00074340541 [W]
rho max/avg/min : 1.2016456 1.1992145 1.1890322
T   max/avg/min : 296.78157 294.28033 293.7
P   max/avg/min : 101324.94 101319.11 101313.27
Prg max/avg/min : 101325 101324.99 101324.88
U   max/avg/min : 4.1053254e-05 4.5338272e-06 -0.00012457967
Prg max-min : 0.12172741
 
Iteration Number = 54

DILUPBiCG:  Solving for Ux, Initial residual = 0.033867355, Final residual = 6.137947e-05, No Iterations 1
DILUPBiCG:  Solving for Uy, Initial residual = 0.032686484, Final residual = 5.9196673e-05, No Iterations 1
DILUPBiCG:  Solving for Uz, Initial residual = 0.0257602, Final residual = 7.8201021e-05, No Iterations 1
DILUPBiCG:  Solving for h, Initial residual = 0.010935281, Final residual = 5.8379922e-05, No Iterations 1
MACARENA
GAMG:  Solving for p_rgh, Initial residual = 0.033785722, Final residual = 0.00022707996, No Iterations 3
MACARENA
MACARENA
time step continuity errors : sum local = 0.00022951969, global = -2.2701037e-06, cumulative = 7.614056e-06
ExecutionTime = 44.08 s  ClockTime = 44 s
Inflow      : -2.4201218e-09 [kg/s]
Outflow     : -2.7117967e-09 [kg/s]
EnergyInflow  : -0.00071505452 [W]
EnergyOutflow : -0.00080101126 [W]
rho max/avg/min : 1.2016456 1.1991625 1.1888875
T   max/avg/min : 296.81769 294.29313 293.7
P   max/avg/min : 101324.94 101319.11 101313.27
Prg max/avg/min : 101325 101324.99 101324.88
U   max/avg/min : 4.2840532e-05 4.6013159e-06 -0.0001127501
Prg max-min : 0.12320207
 
Iteration Number = 55

DILUPBiCG:  Solving for Ux, Initial residual = 0.032817919, Final residual = 5.8448387e-05, No Iterations 1
DILUPBiCG:  Solving for Uy, Initial residual = 0.033891515, Final residual = 7.0763486e-05, No Iterations 1
DILUPBiCG:  Solving for Uz, Initial residual = 0.025339806, Final residual = 7.6817017e-05, No Iterations 1
DILUPBiCG:  Solving for h, Initial residual = 0.010772502, Final residual = 5.8465566e-05, No Iterations 1
MACARENA
GAMG:  Solving for p_rgh, Initial residual = 0.033003105, Final residual = 0.00023490982, No Iterations 3
MACARENA
MACARENA
time step continuity errors : sum local = 0.00024247387, global = -8.3378833e-06, cumulative = -7.2382731e-07
ExecutionTime = 44.82 s  ClockTime = 45 s
Inflow      : -1.8611038e-09 [kg/s]
Outflow     : -2.9323988e-09 [kg/s]
EnergyInflow  : -0.00054988583 [W]
EnergyOutflow : -0.00086617623 [W]
rho max/avg/min : 1.2016456 1.1991103 1.1887437
T   max/avg/min : 296.85361 294.30599 293.7
P   max/avg/min : 101324.94 101319.11 101313.28
Prg max/avg/min : 101325 101324.99 101324.88
U   max/avg/min : 4.4658897e-05 4.6712572e-06 -0.00011486611
Prg max-min : 0.1245416
 
Iteration Number = 56

DILUPBiCG:  Solving for Ux, Initial residual = 0.033520071, Final residual = 6.4133329e-05, No Iterations 1
DILUPBiCG:  Solving for Uy, Initial residual = 0.032051584, Final residual = 5.9030157e-05, No Iterations 1
DILUPBiCG:  Solving for Uz, Initial residual = 0.024807612, Final residual = 7.5793428e-05, No Iterations 1
DILUPBiCG:  Solving for h, Initial residual = 0.010615401, Final residual = 5.8549252e-05, No Iterations 1
MACARENA
GAMG:  Solving for p_rgh, Initial residual = 0.033267111, Final residual = 0.00022013246, No Iterations 3
MACARENA
MACARENA
time step continuity errors : sum local = 0.00023209599, global = -3.0486967e-06, cumulative = -3.772524e-06
ExecutionTime = 45.57 s  ClockTime = 45 s
Inflow      : -2.7601931e-09 [kg/s]
Outflow     : -3.1519056e-09 [kg/s]
EnergyInflow  : -0.00081553272 [W]
EnergyOutflow : -0.00093101699 [W]
rho max/avg/min : 1.2016456 1.199058 1.1886007
T   max/avg/min : 296.88931 294.3189 293.7
P   max/avg/min : 101324.94 101319.11 101313.28
Prg max/avg/min : 101325 101324.99 101324.88
U   max/avg/min : 4.6591889e-05 4.707207e-06 -0.00012304404
Prg max-min : 0.12601309
 
Iteration Number = 57

DILUPBiCG:  Solving for Ux, Initial residual = 0.032315348, Final residual = 5.9258371e-05, No Iterations 1
DILUPBiCG:  Solving for Uy, Initial residual = 0.033300456, Final residual = 7.1840316e-05, No Iterations 1
DILUPBiCG:  Solving for Uz, Initial residual = 0.024205498, Final residual = 7.6969578e-05, No Iterations 1
DILUPBiCG:  Solving for h, Initial residual = 0.010463539, Final residual = 5.8624167e-05, No Iterations 1
MACARENA
GAMG:  Solving for p_rgh, Initial residual = 0.032198132, Final residual = 0.00020540667, No Iterations 3
MACARENA
MACARENA
time step continuity errors : sum local = 0.00022122044, global = 5.8100566e-06, cumulative = 2.0375326e-06
ExecutionTime = 46.28 s  ClockTime = 46 s
Inflow      : -4.1387535e-09 [kg/s]
Outflow     : -3.3922469e-09 [kg/s]
EnergyInflow  : -0.0012228452 [W]
EnergyOutflow : -0.0010020128 [W]
rho max/avg/min : 1.2016456 1.1990054 1.1884586
T   max/avg/min : 296.92482 294.33186 293.7
P   max/avg/min : 101324.94 101319.11 101313.28
Prg max/avg/min : 101325 101324.99 101324.88
U   max/avg/min : 4.8552597e-05 4.7044386e-06 -0.00015067041
Prg max-min : 0.12732436
 
Iteration Number = 58

DILUPBiCG:  Solving for Ux, Initial residual = 0.033013687, Final residual = 6.4915116e-05, No Iterations 1
DILUPBiCG:  Solving for Uy, Initial residual = 0.031403151, Final residual = 5.8391747e-05, No Iterations 1
DILUPBiCG:  Solving for Uz, Initial residual = 0.023911664, Final residual = 8.1522005e-05, No Iterations 1
DILUPBiCG:  Solving for h, Initial residual = 0.010316453, Final residual = 5.8691542e-05, No Iterations 1
MACARENA
GAMG:  Solving for p_rgh, Initial residual = 0.033240478, Final residual = 0.00023381451, No Iterations 3
MACARENA
MACARENA
time step continuity errors : sum local = 0.00025770769, global = 6.2640446e-06, cumulative = 8.3015773e-06
ExecutionTime = 47.07 s  ClockTime = 47 s
Inflow      : -4.4406198e-09 [kg/s]
Outflow     : -3.6357824e-09 [kg/s]
EnergyInflow  : -0.0013120353 [W]
EnergyOutflow : -0.001073952 [W]
rho max/avg/min : 1.2016456 1.1989527 1.1883173
T   max/avg/min : 296.96013 294.34486 293.7
P   max/avg/min : 101324.94 101319.11 101313.28
Prg max/avg/min : 101325 101324.99 101324.88
U   max/avg/min : 5.0590142e-05 4.6885504e-06 -0.0001612228
Prg max-min : 0.12877084
 
Iteration Number = 59

DILUPBiCG:  Solving for Ux, Initial residual = 0.032418784, Final residual = 6.227961e-05, No Iterations 1
DILUPBiCG:  Solving for Uy, Initial residual = 0.032815153, Final residual = 7.2200087e-05, No Iterations 1
DILUPBiCG:  Solving for Uz, Initial residual = 0.023294537, Final residual = 7.7757437e-05, No Iterations 1
DILUPBiCG:  Solving for h, Initial residual = 0.010174224, Final residual = 5.8753374e-05, No Iterations 1
MACARENA
GAMG:  Solving for p_rgh, Initial residual = 0.032420015, Final residual = 0.00022813758, No Iterations 3
MACARENA
MACARENA
time step continuity errors : sum local = 0.00025660098, global = 9.660183e-06, cumulative = 1.796176e-05
ExecutionTime = 47.84 s  ClockTime = 48 s
Inflow      : -5.1414995e-09 [kg/s]
Outflow     : -3.9003085e-09 [kg/s]
EnergyInflow  : -0.0015191187 [W]
EnergyOutflow : -0.0011520921 [W]
rho max/avg/min : 1.2016456 1.1988997 1.1881769
T   max/avg/min : 296.99525 294.35792 293.7
P   max/avg/min : 101324.94 101319.11 101313.28
Prg max/avg/min : 101325 101324.99 101324.87
U   max/avg/min : 5.2613347e-05 4.6521673e-06 -0.00018165673
Prg max-min : 0.13004521
 
Iteration Number = 60

DILUPBiCG:  Solving for Ux, Initial residual = 0.032580445, Final residual = 6.720617e-05, No Iterations 1
DILUPBiCG:  Solving for Uy, Initial residual = 0.031153168, Final residual = 5.9343144e-05, No Iterations 1
DILUPBiCG:  Solving for Uz, Initial residual = 0.022886559, Final residual = 7.8449079e-05, No Iterations 1
DILUPBiCG:  Solving for h, Initial residual = 0.010036709, Final residual = 5.8807369e-05, No Iterations 1
MACARENA
GAMG:  Solving for p_rgh, Initial residual = 0.032985015, Final residual = 0.00022017525, No Iterations 3
MACARENA
MACARENA
time step continuity errors : sum local = 0.00025343235, global = 6.5962634e-06, cumulative = 2.4558024e-05
ExecutionTime = 48.58 s  ClockTime = 49 s
Inflow      : -5.0119147e-09 [kg/s]
Outflow     : -4.1643922e-09 [kg/s]
EnergyInflow  : -0.0014808313 [W]
EnergyOutflow : -0.0012301014 [W]
rho max/avg/min : 1.2016456 1.1988465 1.1880372
T   max/avg/min : 297.03018 294.37103 293.7
P   max/avg/min : 101324.94 101319.11 101313.28
Prg max/avg/min : 101325 101324.99 101324.87
U   max/avg/min : 5.4717108e-05 4.6037591e-06 -0.00018548779
Prg max-min : 0.13150539
 
Iteration Number = 61

DILUPBiCG:  Solving for Ux, Initial residual = 0.032032454, Final residual = 6.289524e-05, No Iterations 1
DILUPBiCG:  Solving for Uy, Initial residual = 0.032589244, Final residual = 7.4319383e-05, No Iterations 1
DILUPBiCG:  Solving for Uz, Initial residual = 0.022379899, Final residual = 7.7013711e-05, No Iterations 1
DILUPBiCG:  Solving for h, Initial residual = 0.0099035463, Final residual = 5.8849306e-05, No Iterations 1
MACARENA
GAMG:  Solving for p_rgh, Initial residual = 0.032276921, Final residual = 0.00017374655, No Iterations 3
MACARENA
MACARENA
time step continuity errors : sum local = 0.00020419227, global = -3.9245148e-06, cumulative = 2.0633509e-05
ExecutionTime = 49.34 s  ClockTime = 49 s
Inflow      : -3.9501112e-09 [kg/s]
Outflow     : -4.4543535e-09 [kg/s]
EnergyInflow  : -0.0011671085 [W]
EnergyOutflow : -0.0013157554 [W]
rho max/avg/min : 1.2016456 1.1987932 1.1878982
T   max/avg/min : 297.06492 294.38418 293.70001
P   max/avg/min : 101324.94 101319.11 101313.28
Prg max/avg/min : 101325.01 101324.99 101324.87
U   max/avg/min : 5.6784963e-05 4.5466642e-06 -0.00017451274
Prg max-min : 0.13279401
 
Iteration Number = 62

DILUPBiCG:  Solving for Ux, Initial residual = 0.031867935, Final residual = 6.6988569e-05, No Iterations 1
DILUPBiCG:  Solving for Uy, Initial residual = 0.030714159, Final residual = 6.0729887e-05, No Iterations 1
DILUPBiCG:  Solving for Uz, Initial residual = 0.022209102, Final residual = 7.8528793e-05, No Iterations 1
DILUPBiCG:  Solving for h, Initial residual = 0.0097745842, Final residual = 5.8883529e-05, No Iterations 1
MACARENA
GAMG:  Solving for p_rgh, Initial residual = 0.032747347, Final residual = 0.00024863469, No Iterations 3
MACARENA
MACARENA
time step continuity errors : sum local = 0.00029896805, global = -1.0525138e-05, cumulative = 1.0108371e-05
ExecutionTime = 50.1 s  ClockTime = 50 s
Inflow      : -3.391478e-09 [kg/s]
Outflow     : -4.743803e-09 [kg/s]
EnergyInflow  : -0.0010020536 [W]
EnergyOutflow : -0.0014012579 [W]
rho max/avg/min : 1.2016456 1.1987397 1.18776
T   max/avg/min : 297.09949 294.39738 293.70001
P   max/avg/min : 101324.94 101319.11 101313.28
Prg max/avg/min : 101325.01 101324.99 101324.87
U   max/avg/min : 5.8959588e-05 4.4777231e-06 -0.00017901708
Prg max-min : 0.13418453
 
Iteration Number = 63

DILUPBiCG:  Solving for Ux, Initial residual = 0.031793439, Final residual = 6.5727436e-05, No Iterations 1
DILUPBiCG:  Solving for Uy, Initial residual = 0.031697716, Final residual = 7.3067731e-05, No Iterations 1
DILUPBiCG:  Solving for Uz, Initial residual = 0.021709479, Final residual = 7.7394132e-05, No Iterations 1
DILUPBiCG:  Solving for h, Initial residual = 0.0096493417, Final residual = 5.8925292e-05, No Iterations 1
MACARENA
GAMG:  Solving for p_rgh, Initial residual = 0.031915891, Final residual = 0.00018016039, No Iterations 3
MACARENA
MACARENA
time step continuity errors : sum local = 0.00022120372, global = -4.6751708e-06, cumulative = 5.4331998e-06
ExecutionTime = 50.84 s  ClockTime = 51 s
Inflow      : -4.4527427e-09 [kg/s]
Outflow     : -5.0534331e-09 [kg/s]
EnergyInflow  : -0.0013156171 [W]
EnergyOutflow : -0.0014927222 [W]
rho max/avg/min : 1.2016456 1.198686 1.1876226
T   max/avg/min : 297.13389 294.41063 293.70001
P   max/avg/min : 101324.94 101319.11 101313.28
Prg max/avg/min : 101325.01 101324.99 101324.87
U   max/avg/min : 6.1106754e-05 4.3641496e-06 -0.00018963033
Prg max-min : 0.13546751
 
Iteration Number = 64

DILUPBiCG:  Solving for Ux, Initial residual = 0.031379084, Final residual = 6.7244189e-05, No Iterations 1
DILUPBiCG:  Solving for Uy, Initial residual = 0.030605841, Final residual = 6.2376585e-05, No Iterations 1
DILUPBiCG:  Solving for Uz, Initial residual = 0.021191538, Final residual = 7.7305328e-05, No Iterations 1
DILUPBiCG:  Solving for h, Initial residual = 0.0095277743, Final residual = 5.8941824e-05, No Iterations 1
MACARENA
GAMG:  Solving for p_rgh, Initial residual = 0.032301088, Final residual = 0.00021538498, No Iterations 3
MACARENA
MACARENA
time step continuity errors : sum local = 0.00027061602, global = 1.0722333e-05, cumulative = 1.6155533e-05
ExecutionTime = 51.58 s  ClockTime = 52 s
Inflow      : -6.7515436e-09 [kg/s]
Outflow     : -5.373882e-09 [kg/s]
EnergyInflow  : -0.0019948259 [W]
EnergyOutflow : -0.0015873824 [W]
rho max/avg/min : 1.2016456 1.1986321 1.1874858
T   max/avg/min : 297.16812 294.42392 293.70001
P   max/avg/min : 101324.94 101319.11 101313.28
Prg max/avg/min : 101325.01 101324.99 101324.87
U   max/avg/min : 6.3450931e-05 4.1900785e-06 -0.00023753071
Prg max-min : 0.13686912
 
Iteration Number = 65

DILUPBiCG:  Solving for Ux, Initial residual = 0.031224215, Final residual = 6.6844786e-05, No Iterations 1
DILUPBiCG:  Solving for Uy, Initial residual = 0.030914711, Final residual = 7.1568094e-05, No Iterations 1
DILUPBiCG:  Solving for Uz, Initial residual = 0.021043043, Final residual = 8.2330677e-05, No Iterations 1
DILUPBiCG:  Solving for h, Initial residual = 0.0094099176, Final residual = 5.8969227e-05, No Iterations 1
MACARENA
GAMG:  Solving for p_rgh, Initial residual = 0.031883957, Final residual = 0.00020523091, No Iterations 3
MACARENA
MACARENA
time step continuity errors : sum local = 0.00026339607, global = 1.1575059e-05, cumulative = 2.7730592e-05
ExecutionTime = 52.36 s  ClockTime = 52 s
Inflow      : -7.1938479e-09 [kg/s]
Outflow     : -5.7066236e-09 [kg/s]
EnergyInflow  : -0.0021255101 [W]
EnergyOutflow : -0.001685674 [W]
rho max/avg/min : 1.2016455 1.1985781 1.1873498
T   max/avg/min : 297.20217 294.43725 293.70001
P   max/avg/min : 101324.94 101319.11 101313.28
Prg max/avg/min : 101325.01 101324.99 101324.87
U   max/avg/min : 6.5703745e-05 3.9962538e-06 -0.00025200736
Prg max-min : 0.13811842
 
Iteration Number = 66

DILUPBiCG:  Solving for Ux, Initial residual = 0.031078979, Final residual = 6.9391023e-05, No Iterations 1
DILUPBiCG:  Solving for Uy, Initial residual = 0.030146373, Final residual = 6.364034e-05, No Iterations 1
DILUPBiCG:  Solving for Uz, Initial residual = 0.020444505, Final residual = 7.7482405e-05, No Iterations 1
DILUPBiCG:  Solving for h, Initial residual = 0.0092953589, Final residual = 5.8982891e-05, No Iterations 1
MACARENA
GAMG:  Solving for p_rgh, Initial residual = 0.032226898, Final residual = 0.00020901976, No Iterations 3
MACARENA
MACARENA
time step continuity errors : sum local = 0.00027464554, global = 1.1637323e-05, cumulative = 3.9367915e-05
ExecutionTime = 53.12 s  ClockTime = 53 s
Inflow      : -7.5541678e-09 [kg/s]
Outflow     : -6.0589434e-09 [kg/s]
EnergyInflow  : -0.002231971 [W]
EnergyOutflow : -0.0017897496 [W]
rho max/avg/min : 1.2016455 1.1985238 1.1872144
T   max/avg/min : 297.23607 294.45064 293.70001
P   max/avg/min : 101324.94 101319.11 101313.28
Prg max/avg/min : 101325.01 101324.99 101324.87
U   max/avg/min : 6.8106634e-05 3.7849527e-06 -0.00026447204
Prg max-min : 0.13952893
 
Iteration Number = 67

DILUPBiCG:  Solving for Ux, Initial residual = 0.030603513, Final residual = 6.6720064e-05, No Iterations 1
DILUPBiCG:  Solving for Uy, Initial residual = 0.030579157, Final residual = 7.2736291e-05, No Iterations 1
DILUPBiCG:  Solving for Uz, Initial residual = 0.020027673, Final residual = 7.6564785e-05, No Iterations 1
DILUPBiCG:  Solving for h, Initial residual = 0.0091839104, Final residual = 5.9006403e-05, No Iterations 1
MACARENA
GAMG:  Solving for p_rgh, Initial residual = 0.031904742, Final residual = 0.00018438872, No Iterations 3
MACARENA
MACARENA
time step continuity errors : sum local = 0.0002471647, global = 1.1279047e-05, cumulative = 5.0646961e-05
ExecutionTime = 53.87 s  ClockTime = 54 s
Inflow      : -7.8644313e-09 [kg/s]
Outflow     : -6.4152401e-09 [kg/s]
EnergyInflow  : -0.0023236422 [W]
EnergyOutflow : -0.0018949997 [W]
rho max/avg/min : 1.2016455 1.1984694 1.1870797
T   max/avg/min : 297.26981 294.46406 293.70001
P   max/avg/min : 101324.94 101319.11 101313.28
Prg max/avg/min : 101325.01 101324.99 101324.87
U   max/avg/min : 7.0429834e-05 3.544854e-06 -0.00027648224
Prg max-min : 0.14075994
 
Iteration Number = 68

DILUPBiCG:  Solving for Ux, Initial residual = 0.030783176, Final residual = 7.0545082e-05, No Iterations 1
DILUPBiCG:  Solving for Uy, Initial residual = 0.029829608, Final residual = 6.672199e-05, No Iterations 1
DILUPBiCG:  Solving for Uz, Initial residual = 0.019654285, Final residual = 7.5933243e-05, No Iterations 1
DILUPBiCG:  Solving for h, Initial residual = 0.0090757183, Final residual = 5.9030985e-05, No Iterations 1
MACARENA
GAMG:  Solving for p_rgh, Initial residual = 0.032029694, Final residual = 0.00019482018, No Iterations 3
MACARENA
MACARENA
time step continuity errors : sum local = 0.00026761089, global = 1.0912941e-05, cumulative = 6.1559902e-05
ExecutionTime = 54.61 s  ClockTime = 55 s
Inflow      : -8.1976997e-09 [kg/s]
Outflow     : -6.7955478e-09 [kg/s]
EnergyInflow  : -0.0024221104 [W]
EnergyOutflow : -0.0020073435 [W]
rho max/avg/min : 1.2016455 1.1984148 1.1869457
T   max/avg/min : 297.30339 294.47753 293.70002
P   max/avg/min : 101324.94 101319.11 101313.28
Prg max/avg/min : 101325.01 101324.99 101324.87
U   max/avg/min : 7.2876485e-05 3.270334e-06 -0.0002884726
Prg max-min : 0.1421635
 
Iteration Number = 69

[...]
DILUPBiCG:  Solving for Uy, Initial residual = 0.017378803, Final residual = 7.7632841e-05, No Iterations 1
DILUPBiCG:  Solving for Uz, Initial residual = 0.0014351036, Final residual = 4.9567718e-06, No Iterations 1
DILUPBiCG:  Solving for h, Initial residual = 0.0025233416, Final residual = 8.8175754e-06, No Iterations 2
MACARENA
GAMG:  Solving for p_rgh, Initial residual = 0.03336468, Final residual = 0.00020234802, No Iterations 2
MACARENA
MACARENA
time step continuity errors : sum local = 0.0021884369, global = -1.599237e-05, cumulative = 0.00063104716
ExecutionTime = 275.78 s  ClockTime = 277 s
Inflow      : -1.0465477e-06 [kg/s]
Outflow     : -1.0486025e-06 [kg/s]
EnergyInflow  : -0.30921528 [W]
EnergyOutflow : -0.30982236 [W]
rho max/avg/min : 1.2007447 1.180113 1.1573082
T   max/avg/min : 304.92025 299.07576 293.90816
P   max/avg/min : 101324.94 101319.24 101313.53
Prg max/avg/min : 101325.25 101325.02 101324.83
U   max/avg/min : 0.00067933967 -0.0027436598 -0.026328757
Prg max-min : 0.4223965
 
Iteration Number = 363

DILUPBiCG:  Solving for Ux, Initial residual = 0.017064267, Final residual = 7.6726349e-05, No Iterations 1
DILUPBiCG:  Solving for Uy, Initial residual = 0.017576253, Final residual = 7.5516617e-05, No Iterations 1
DILUPBiCG:  Solving for Uz, Initial residual = 0.0014343128, Final residual = 4.9492956e-06, No Iterations 1
DILUPBiCG:  Solving for h, Initial residual = 0.0025173296, Final residual = 1.1480057e-05, No Iterations 2
MACARENA
GAMG:  Solving for p_rgh, Initial residual = 0.033593514, Final residual = 0.00020366754, No Iterations 2
MACARENA
MACARENA
time step continuity errors : sum local = 0.0022074923, global = 6.6135411e-06, cumulative = 0.0006376607
ExecutionTime = 276.53 s  ClockTime = 278 s
Inflow      : -1.0556318e-06 [kg/s]
Outflow     : -1.0547821e-06 [kg/s]
EnergyInflow  : -0.3118993 [W]
EnergyOutflow : -0.3116482 [W]
rho max/avg/min : 1.2007368 1.1800505 1.1572191
T   max/avg/min : 304.9437 299.09175 293.90992
P   max/avg/min : 101324.94 101319.24 101313.53
Prg max/avg/min : 101325.25 101325.02 101324.83
U   max/avg/min : 0.00067598205 -0.0027617101 -0.026443759
Prg max-min : 0.4229818
 
Iteration Number = 364

DILUPBiCG:  Solving for Ux, Initial residual = 0.016752997, Final residual = 7.4264334e-05, No Iterations 1
DILUPBiCG:  Solving for Uy, Initial residual = 0.017539057, Final residual = 7.6915575e-05, No Iterations 1
DILUPBiCG:  Solving for Uz, Initial residual = 0.001414347, Final residual = 4.8932211e-06, No Iterations 1
DILUPBiCG:  Solving for h, Initial residual = 0.0025118253, Final residual = 1.0292259e-05, No Iterations 2
MACARENA
GAMG:  Solving for p_rgh, Initial residual = 0.032318172, Final residual = 0.00020814814, No Iterations 2
MACARENA
MACARENA
time step continuity errors : sum local = 0.002262161, global = -4.5660686e-05, cumulative = 0.00059200001
ExecutionTime = 277.24 s  ClockTime = 278 s
Inflow      : -1.0551331e-06 [kg/s]
Outflow     : -1.0609999e-06 [kg/s]
EnergyInflow  : -0.31175196 [W]
EnergyOutflow : -0.31348532 [W]
rho max/avg/min : 1.2007288 1.1799879 1.1571301
T   max/avg/min : 304.9672 299.10776 293.91169
P   max/avg/min : 101324.94 101319.24 101313.53
Prg max/avg/min : 101325.25 101325.02 101324.83
U   max/avg/min : 0.00068127384 -0.0027796175 -0.026520836
Prg max-min : 0.42400956
 
Iteration Number = 365

DILUPBiCG:  Solving for Ux, Initial residual = 0.016700719, Final residual = 7.0763826e-05, No Iterations 1
DILUPBiCG:  Solving for Uy, Initial residual = 0.01808239, Final residual = 7.9631801e-05, No Iterations 1
DILUPBiCG:  Solving for Uz, Initial residual = 0.0013966027, Final residual = 4.8247946e-06, No Iterations 1
DILUPBiCG:  Solving for h, Initial residual = 0.0025053577, Final residual = 1.5475744e-05, No Iterations 2
MACARENA
GAMG:  Solving for p_rgh, Initial residual = 0.03151384, Final residual = 0.00020029184, No Iterations 2
MACARENA
MACARENA
time step continuity errors : sum local = 0.0021795357, global = 2.864042e-06, cumulative = 0.00059486406
ExecutionTime = 277.99 s  ClockTime = 279 s
Inflow      : -1.0676113e-06 [kg/s]
Outflow     : -1.0672433e-06 [kg/s]
EnergyInflow  : -0.31543877 [W]
EnergyOutflow : -0.31533002 [W]
rho max/avg/min : 1.2007207 1.1799255 1.157041
T   max/avg/min : 304.99071 299.12372 293.91347
P   max/avg/min : 101324.94 101319.24 101313.53
Prg max/avg/min : 101325.25 101325.02 101324.83
U   max/avg/min : 0.00068193096 -0.0027975797 -0.026703105
Prg max-min : 0.42460286
 
Iteration Number = 366

DILUPBiCG:  Solving for Ux, Initial residual = 0.016489643, Final residual = 6.340626e-05, No Iterations 1
DILUPBiCG:  Solving for Uy, Initial residual = 0.017945509, Final residual = 7.9671438e-05, No Iterations 1
DILUPBiCG:  Solving for Uz, Initial residual = 0.0014104146, Final residual = 4.857423e-06, No Iterations 1
DILUPBiCG:  Solving for h, Initial residual = 0.0025010253, Final residual = 1.2209767e-05, No Iterations 2
MACARENA
GAMG:  Solving for p_rgh, Initial residual = 0.032244931, Final residual = 0.00020593297, No Iterations 2
MACARENA
MACARENA
time step continuity errors : sum local = 0.0022469014, global = -4.4683582e-07, cumulative = 0.00059441722
ExecutionTime = 278.73 s  ClockTime = 280 s
Inflow      : -1.0735401e-06 [kg/s]
Outflow     : -1.0735975e-06 [kg/s]
EnergyInflow  : -0.31719051 [W]
EnergyOutflow : -0.31720745 [W]
rho max/avg/min : 1.2007126 1.179863 1.156952
T   max/avg/min : 305.01411 299.13971 293.91525
P   max/avg/min : 101324.94 101319.24 101313.53
Prg max/avg/min : 101325.25 101325.02 101324.83
U   max/avg/min : 0.00068125066 -0.0028155134 -0.026909574
Prg max-min : 0.42573502
 
Iteration Number = 367

DILUPBiCG:  Solving for Ux, Initial residual = 0.01673151, Final residual = 7.2448092e-05, No Iterations 1
DILUPBiCG:  Solving for Uy, Initial residual = 0.018593443, Final residual = 8.1652973e-05, No Iterations 1
DILUPBiCG:  Solving for Uz, Initial residual = 0.0013998912, Final residual = 4.8198761e-06, No Iterations 1
DILUPBiCG:  Solving for h, Initial residual = 0.0024950891, Final residual = 6.731755e-08, No Iterations 3
MACARENA
GAMG:  Solving for p_rgh, Initial residual = 0.031325636, Final residual = 0.00020558265, No Iterations 2
MACARENA
MACARENA
time step continuity errors : sum local = 0.0022468574, global = -5.3024939e-06, cumulative = 0.00058911473
ExecutionTime = 279.48 s  ClockTime = 281 s
Inflow      : -1.0792093e-06 [kg/s]
Outflow     : -1.0798906e-06 [kg/s]
EnergyInflow  : -0.31886556 [W]
EnergyOutflow : -0.31906683 [W]
rho max/avg/min : 1.2007046 1.1798001 1.1568633
T   max/avg/min : 305.03734 299.15582 293.91704
P   max/avg/min : 101324.94 101319.24 101313.53
Prg max/avg/min : 101325.25 101325.02 101324.83
U   max/avg/min : 0.0006786366 -0.002833379 -0.026989942
Prg max-min : 0.4260622
 
Iteration Number = 368

DILUPBiCG:  Solving for Ux, Initial residual = 0.016902647, Final residual = 6.9610992e-05, No Iterations 1
DILUPBiCG:  Solving for Uy, Initial residual = 0.018713758, Final residual = 8.3602674e-05, No Iterations 1
DILUPBiCG:  Solving for Uz, Initial residual = 0.00137559, Final residual = 4.739151e-06, No Iterations 1
DILUPBiCG:  Solving for h, Initial residual = 0.0024907794, Final residual = 1.49468e-05, No Iterations 2
MACARENA
GAMG:  Solving for p_rgh, Initial residual = 0.032756951, Final residual = 0.00020934661, No Iterations 2
MACARENA
MACARENA
time step continuity errors : sum local = 0.0022941967, global = -7.4806214e-06, cumulative = 0.0005816341
ExecutionTime = 280.2 s  ClockTime = 281 s
Inflow      : -1.0851686e-06 [kg/s]
Outflow     : -1.0861298e-06 [kg/s]
EnergyInflow  : -0.3206263 [W]
EnergyOutflow : -0.32091027 [W]
rho max/avg/min : 1.2006964 1.1797377 1.1567743
T   max/avg/min : 305.06074 299.17178 293.91884
P   max/avg/min : 101324.94 101319.24 101313.53
Prg max/avg/min : 101325.25 101325.02 101324.83
U   max/avg/min : 0.00068361793 -0.0028512024 -0.027055099
Prg max-min : 0.42721829
 
Iteration Number = 369

DILUPBiCG:  Solving for Ux, Initial residual = 0.017178196, Final residual = 7.2324089e-05, No Iterations 1
DILUPBiCG:  Solving for Uy, Initial residual = 0.019018164, Final residual = 8.392175e-05, No Iterations 1
DILUPBiCG:  Solving for Uz, Initial residual = 0.0013741851, Final residual = 4.7322873e-06, No Iterations 1
DILUPBiCG:  Solving for h, Initial residual = 0.0024850895, Final residual = 6.5928326e-08, No Iterations 3
MACARENA
GAMG:  Solving for p_rgh, Initial residual = 0.033888118, Final residual = 0.00020897204, No Iterations 2
MACARENA
MACARENA
time step continuity errors : sum local = 0.0022946531, global = -7.7894011e-06, cumulative = 0.0005738447
ExecutionTime = 280.96 s  ClockTime = 282 s
Inflow      : -1.0912669e-06 [kg/s]
Outflow     : -1.0922677e-06 [kg/s]
EnergyInflow  : -0.32242811 [W]
EnergyOutflow : -0.3227238 [W]
rho max/avg/min : 1.2006882 1.1796747 1.1566857
T   max/avg/min : 305.0841 299.18789 293.92063
P   max/avg/min : 101324.94 101319.24 101313.53
Prg max/avg/min : 101325.25 101325.02 101324.83
U   max/avg/min : 0.00068655393 -0.0028689871 -0.027337428
Prg max-min : 0.42772431
 
Iteration Number = 370

DILUPBiCG:  Solving for Ux, Initial residual = 0.017566327, Final residual = 7.5657944e-05, No Iterations 1
DILUPBiCG:  Solving for Uy, Initial residual = 0.019081574, Final residual = 8.3541579e-05, No Iterations 1
DILUPBiCG:  Solving for Uz, Initial residual = 0.0013784219, Final residual = 4.7336264e-06, No Iterations 1
DILUPBiCG:  Solving for h, Initial residual = 0.0024795838, Final residual = 1.9786603e-05, No Iterations 2
MACARENA
GAMG:  Solving for p_rgh, Initial residual = 0.032737541, Final residual = 0.00021609376, No Iterations 2
MACARENA
MACARENA
time step continuity errors : sum local = 0.0023790626, global = 1.5356629e-05, cumulative = 0.00058920133
ExecutionTime = 281.71 s  ClockTime = 283 s
Inflow      : -1.1005926e-06 [kg/s]
Outflow     : -1.0986195e-06 [kg/s]
EnergyInflow  : -0.3251835 [W]
EnergyOutflow : -0.3246005 [W]
rho max/avg/min : 1.20068 1.1796126 1.1565966
T   max/avg/min : 305.1077 299.20381 293.92245
P   max/avg/min : 101324.94 101319.24 101313.54
Prg max/avg/min : 101325.25 101325.02 101324.83
U   max/avg/min : 0.00068366071 -0.0028867815 -0.027485262
Prg max-min : 0.42887736
 
Iteration Number = 371

DILUPBiCG:  Solving for Ux, Initial residual = 0.017357187, Final residual = 7.6199231e-05, No Iterations 1
DILUPBiCG:  Solving for Uy, Initial residual = 0.019351696, Final residual = 8.3920337e-05, No Iterations 1
DILUPBiCG:  Solving for Uz, Initial residual = 0.0013711543, Final residual = 4.7118257e-06, No Iterations 1
DILUPBiCG:  Solving for h, Initial residual = 0.0024752251, Final residual = 1.9646755e-05, No Iterations 2
MACARENA
GAMG:  Solving for p_rgh, Initial residual = 0.033684693, Final residual = 0.00021133753, No Iterations 2
MACARENA
MACARENA
time step continuity errors : sum local = 0.00233287, global = -3.5250666e-06, cumulative = 0.00058567627
ExecutionTime = 282.46 s  ClockTime = 284 s
Inflow      : -1.1043888e-06 [kg/s]
Outflow     : -1.1048418e-06 [kg/s]
EnergyInflow  : -0.32630515 [W]
EnergyOutflow : -0.32643896 [W]
rho max/avg/min : 1.2006717 1.1795504 1.1565076
T   max/avg/min : 305.13108 299.21973 293.92427
P   max/avg/min : 101324.94 101319.24 101313.54
Prg max/avg/min : 101325.25 101325.02 101324.83
U   max/avg/min : 0.00068395182 -0.002904496 -0.027526398
Prg max-min : 0.4294534
 
Iteration Number = 372

DILUPBiCG:  Solving for Ux, Initial residual = 0.017545465, Final residual = 7.4752049e-05, No Iterations 1
DILUPBiCG:  Solving for Uy, Initial residual = 0.019189235, Final residual = 8.7236967e-05, No Iterations 1
DILUPBiCG:  Solving for Uz, Initial residual = 0.0013450067, Final residual = 4.6334039e-06, No Iterations 1
DILUPBiCG:  Solving for h, Initial residual = 0.0024693321, Final residual = 6.6246777e-08, No Iterations 3
MACARENA
GAMG:  Solving for p_rgh, Initial residual = 0.032661331, Final residual = 0.00021179181, No Iterations 2
MACARENA
MACARENA
time step continuity errors : sum local = 0.0023433732, global = 3.676721e-05, cumulative = 0.00062244348
ExecutionTime = 283.22 s  ClockTime = 284 s
Inflow      : -1.1159376e-06 [kg/s]
Outflow     : -1.1112136e-06 [kg/s]
EnergyInflow  : -0.32971739 [W]
EnergyOutflow : -0.3283216 [W]
rho max/avg/min : 1.2006635 1.1794875 1.1564191
T   max/avg/min : 305.15455 299.23585 293.92609
P   max/avg/min : 101324.94 101319.24 101313.54
Prg max/avg/min : 101325.26 101325.02 101324.83
U   max/avg/min : 0.00068680152 -0.002922237 -0.0276315
Prg max-min : 0.43054864
 
Iteration Number = 373

DILUPBiCG:  Solving for Ux, Initial residual = 0.01744603, Final residual = 7.0606229e-05, No Iterations 1
DILUPBiCG:  Solving for Uy, Initial residual = 0.019256971, Final residual = 8.8299917e-05, No Iterations 1
DILUPBiCG:  Solving for Uz, Initial residual = 0.001354068, Final residual = 4.6520751e-06, No Iterations 1
DILUPBiCG:  Solving for h, Initial residual = 0.0024641638, Final residual = 6.6740994e-08, No Iterations 3
MACARENA
GAMG:  Solving for p_rgh, Initial residual = 0.032151828, Final residual = 0.00021475748, No Iterations 2
MACARENA
MACARENA
time step continuity errors : sum local = 0.0023793059, global = 1.9335672e-06, cumulative = 0.00062437704
ExecutionTime = 283.98 s  ClockTime = 285 s
Inflow      : -1.1179236e-06 [kg/s]
Outflow     : -1.1176752e-06 [kg/s]
EnergyInflow  : -0.33030416 [W]
EnergyOutflow : -0.33023075 [W]
rho max/avg/min : 1.2006555 1.1794245 1.1563306
T   max/avg/min : 305.1778 299.25196 293.92791
P   max/avg/min : 101324.94 101319.24 101313.54
Prg max/avg/min : 101325.26 101325.02 101324.82
U   max/avg/min : 0.00068877081 -0.0029398706 -0.027889996
Prg max-min : 0.43099277
 
Iteration Number = 374

DILUPBiCG:  Solving for Ux, Initial residual = 0.017202711, Final residual = 7.4787636e-05, No Iterations 1
DILUPBiCG:  Solving for Uy, Initial residual = 0.018820103, Final residual = 8.7738003e-05, No Iterations 1
DILUPBiCG:  Solving for Uz, Initial residual = 0.0013499948, Final residual = 4.6309051e-06, No Iterations 1
DILUPBiCG:  Solving for h, Initial residual = 0.0024594748, Final residual = 6.5688466e-08, No Iterations 3
MACARENA
GAMG:  Solving for p_rgh, Initial residual = 0.033244776, Final residual = 0.00022013298, No Iterations 2
MACARENA
MACARENA
time step continuity errors : sum local = 0.0024455519, global = 2.4091515e-06, cumulative = 0.0006267862
ExecutionTime = 284.74 s  ClockTime = 286 s
Inflow      : -1.1243221e-06 [kg/s]
Outflow     : -1.1240126e-06 [kg/s]
EnergyInflow  : -0.33219469 [W]
EnergyOutflow : -0.33210322 [W]
rho max/avg/min : 1.2006473 1.1793616 1.1562421
T   max/avg/min : 305.20122 299.26807 293.92974
P   max/avg/min : 101324.94 101319.24 101313.54
Prg max/avg/min : 101325.26 101325.02 101324.82
U   max/avg/min : 0.00068491398 -0.0029574646 -0.028014494
Prg max-min : 0.43197447
 
Iteration Number = 375

DILUPBiCG:  Solving for Ux, Initial residual = 0.017481478, Final residual = 7.4582466e-05, No Iterations 1
DILUPBiCG:  Solving for Uy, Initial residual = 0.01948077, Final residual = 8.6789963e-05, No Iterations 1
DILUPBiCG:  Solving for Uz, Initial residual = 0.0013332739, Final residual = 4.585805e-06, No Iterations 1
DILUPBiCG:  Solving for h, Initial residual = 0.0024541291, Final residual = 6.5522651e-08, No Iterations 3
MACARENA
GAMG:  Solving for p_rgh, Initial residual = 0.033097416, Final residual = 0.00021560285, No Iterations 2
MACARENA
MACARENA
time step continuity errors : sum local = 0.0024019578, global = 3.2652514e-05, cumulative = 0.00065943871
ExecutionTime = 285.48 s  ClockTime = 287 s
Inflow      : -1.1346405e-06 [kg/s]
Outflow     : -1.1304452e-06 [kg/s]
EnergyInflow  : -0.33524339 [W]
EnergyOutflow : -0.33400381 [W]
rho max/avg/min : 1.200639 1.1792987 1.1561537
T   max/avg/min : 305.22458 299.28418 293.93157
P   max/avg/min : 101324.94 101319.24 101313.54
Prg max/avg/min : 101325.26 101325.02 101324.82
U   max/avg/min : 0.00068992945 -0.0029751127 -0.028022481
Prg max-min : 0.43257094
 
Iteration Number = 376

DILUPBiCG:  Solving for Ux, Initial residual = 0.017410838, Final residual = 7.482975e-05, No Iterations 1
DILUPBiCG:  Solving for Uy, Initial residual = 0.019266882, Final residual = 8.8352691e-05, No Iterations 1
DILUPBiCG:  Solving for Uz, Initial residual = 0.0013253082, Final residual = 4.5529351e-06, No Iterations 1
DILUPBiCG:  Solving for h, Initial residual = 0.0024488887, Final residual = 6.4241329e-08, No Iterations 3
MACARENA
GAMG:  Solving for p_rgh, Initial residual = 0.032586728, Final residual = 0.0002223889, No Iterations 2
MACARENA
MACARENA
time step continuity errors : sum local = 0.0024837433, global = 8.454921e-07, cumulative = 0.0006602842
ExecutionTime = 286.2 s  ClockTime = 287 s
Inflow      : -1.1368431e-06 [kg/s]
Outflow     : -1.1367345e-06 [kg/s]
EnergyInflow  : -0.33589416 [W]
EnergyOutflow : -0.33586205 [W]
rho max/avg/min : 1.2006308 1.1792359 1.1560653
T   max/avg/min : 305.24792 299.30028 293.93342
P   max/avg/min : 101324.94 101319.24 101313.54
Prg max/avg/min : 101325.26 101325.02 101324.82
U   max/avg/min : 0.0006950217 -0.0029926833 -0.028304173
Prg max-min : 0.43342753
 
Iteration Number = 377

DILUPBiCG:  Solving for Ux, Initial residual = 0.017330837, Final residual = 7.3016192e-05, No Iterations 1
DILUPBiCG:  Solving for Uy, Initial residual = 0.019414534, Final residual = 9.0650721e-05, No Iterations 1
DILUPBiCG:  Solving for Uz, Initial residual = 0.0013284612, Final residual = 4.5613966e-06, No Iterations 1
DILUPBiCG:  Solving for h, Initial residual = 0.0024434533, Final residual = 6.4938775e-08, No Iterations 3
MACARENA
GAMG:  Solving for p_rgh, Initial residual = 0.032113608, Final residual = 0.00021707059, No Iterations 2
MACARENA
MACARENA
time step continuity errors : sum local = 0.0024267801, global = 6.5442524e-05, cumulative = 0.00072572673
ExecutionTime = 286.96 s  ClockTime = 288 s
Inflow      : -1.1514503e-06 [kg/s]
Outflow     : -1.1430419e-06 [kg/s]
EnergyInflow  : -0.34021005 [W]
EnergyOutflow : -0.33772568 [W]
rho max/avg/min : 1.2006225 1.179173 1.155977
T   max/avg/min : 305.27124 299.31639 293.93527
P   max/avg/min : 101324.94 101319.24 101313.54
Prg max/avg/min : 101325.26 101325.03 101324.82
U   max/avg/min : 0.00069239715 -0.0030103551 -0.028489313
Prg max-min : 0.43433815
 
Iteration Number = 378

DILUPBiCG:  Solving for Ux, Initial residual = 0.017507925, Final residual = 7.1819899e-05, No Iterations 1
DILUPBiCG:  Solving for Uy, Initial residual = 0.019109548, Final residual = 8.8613483e-05, No Iterations 1
DILUPBiCG:  Solving for Uz, Initial residual = 0.0013413771, Final residual = 4.6017396e-06, No Iterations 1
DILUPBiCG:  Solving for h, Initial residual = 0.0024391416, Final residual = 6.4547791e-08, No Iterations 3
MACARENA
GAMG:  Solving for p_rgh, Initial residual = 0.033034258, Final residual = 0.00021903365, No Iterations 2
MACARENA
MACARENA
time step continuity errors : sum local = 0.0024527146, global = 3.0529961e-05, cumulative = 0.00075625669
ExecutionTime = 287.69 s  ClockTime = 289 s
Inflow      : -1.1532256e-06 [kg/s]
Outflow     : -1.149303e-06 [kg/s]
EnergyInflow  : -0.34073458 [W]
EnergyOutflow : -0.33957558 [W]
rho max/avg/min : 1.2006142 1.1791101 1.1558887
T   max/avg/min : 305.29444 299.3325 293.93712
P   max/avg/min : 101324.94 101319.24 101313.54
Prg max/avg/min : 101325.26 101325.02 101324.82
U   max/avg/min : 0.00068423981 -0.0030279644 -0.028574473
Prg max-min : 0.43511254
 
Iteration Number = 379

DILUPBiCG:  Solving for Ux, Initial residual = 0.016827051, Final residual = 6.4351651e-05, No Iterations 1
DILUPBiCG:  Solving for Uy, Initial residual = 0.019218638, Final residual = 8.9646615e-05, No Iterations 1
DILUPBiCG:  Solving for Uz, Initial residual = 0.0013104261, Final residual = 4.5076649e-06, No Iterations 1
DILUPBiCG:  Solving for h, Initial residual = 0.0024343074, Final residual = 6.4105283e-08, No Iterations 3
MACARENA
