/*---------------------------------------------------------------------------*\
| =========                 |                                                 |
| \\      /  F ield         | OpenFOAM: The Open Source CFD Toolbox           |
|  \\    /   O peration     | Version:  4.0                                   |
|   \\  /    A nd           | Web:      www.OpenFOAM.org                      |
|    \\/     M anipulation  |                                                 |
\*---------------------------------------------------------------------------*/
Build  : 4.0-665f1db4c1f1
Exec   : pupoBuoyantSimpleFoam
Date   : Sep 27 2016
Time   : 00:18:27
Host   : "FAB2000"
PID    : 10221
Case   : /home/pedro/Documents/ThesisProject/OpenFoam/validation1rod/fvDOM
nProcs : 1
sigFpe : Enabling floating point exception trapping (FOAM_SIGFPE).
fileModificationChecking : Monitoring run-time modified files using timeStampMaster
allowSystemOperations : Allowing user-supplied system call operations

// * * * * * * * * * * * * * * * * * * * * * * * * * * * * * * * * * * * * * //
Create time

--> FOAM Warning : 
    From function void* Foam::dlOpen(const Foam::fileName&, bool)
    in file POSIX.C at line 1037
    dlopen error : radiatingwall.so: cannot open shared object file: No such file or directory
--> FOAM Warning : 
    From function bool Foam::dlLibraryTable::open(const Foam::fileName&, bool)
    in file db/dynamicLibrary/dlLibraryTable/dlLibraryTable.C at line 97
    could not load "radiatingwall.so"
Create mesh for time = 0


SIMPLE: convergence criteria
    field p_rgh	 tolerance 1e-06
    field Uz	 tolerance 1e-06
    field h	 tolerance 1e-06

Reading thermophysical properties

Selecting thermodynamics package 
{
    type            heRhoThermo;
    mixture         pureMixture;
    transport       sutherland;
    thermo          hConst;
    equationOfState perfectGas;
    specie          specie;
    energy          sensibleEnthalpy;
}


Reading g

Reading hRef
Calculating field g.h

Selecting turbulence model type laminar
No MRF models present

Selecting radiationModel fvDOM
Selecting absorptionEmissionModel constantAbsorptionEmission
Selecting scatterModel none
fvDOM : Allocated 16 rays with average orientation:
	I0 : omega : 	0.78539816
	I1 : omega : 	0.78539816
	I2 : omega : 	0.78539816
	I3 : omega : 	0.78539816
	I4 : omega : 	0.78539816
	I5 : omega : 	0.78539816
	I6 : omega : 	0.78539816
	I7 : omega : 	0.78539816
	I8 : omega : 	0.78539816
	I9 : omega : 	0.78539816
	I10 : omega : 	0.78539816
	I11 : omega : 	0.78539816
	I12 : omega : 	0.78539816
	I13 : omega : 	0.78539816
	I14 : omega : 	0.78539816
	I15 : omega : 	0.78539816

 
rho max/avg/min : 1.2016452 1.2015414 1.2014377
T   max/avg/min : 293.7 293.7 293.7
P   max/avg/min : 101324.91 101316.16 101307.41
Prg max/avg/min : 101325 101325 101325
U   max/avg/min : 0 0 0
 
sngrad(rho) :-0.00013977519 -0.00013977519 -0.00013977519
 
No finite volume options present


Starting Iteration loop

Iteration Number = 1

DILUPBiCG:  Solving for Ux, Initial residual = 2.3034354e-10, Final residual = 2.3034354e-10, No Iterations 0
DILUPBiCG:  Solving for Uy, Initial residual = 4.8698736e-07, Final residual = 2.590422e-09, No Iterations 1
DILUPBiCG:  Solving for Uz, Initial residual = 1, Final residual = 0.0001017747, No Iterations 2
DILUPBiCG:  Solving for h, Initial residual = 1, Final residual = 0.0004597898, No Iterations 1
Radiation solver iter: 0
GAMG:  Solving for ILambda_0_0, Initial residual = 1, Final residual = 2.1744302e-17, No Iterations 1
GAMG:  Solving for ILambda_1_0, Initial residual = 1, Final residual = 5.0878959e-17, No Iterations 1
GAMG:  Solving for ILambda_2_0, Initial residual = 1, Final residual = 5.6709147e-17, No Iterations 1
GAMG:  Solving for ILambda_3_0, Initial residual = 1, Final residual = 3.2981888e-17, No Iterations 1
GAMG:  Solving for ILambda_4_0, Initial residual = 1, Final residual = 3.8080056e-08, No Iterations 2
GAMG:  Solving for ILambda_5_0, Initial residual = 1, Final residual = 5.1444585e-06, No Iterations 2
GAMG:  Solving for ILambda_6_0, Initial residual = 1, Final residual = 5.1444585e-06, No Iterations 2
GAMG:  Solving for ILambda_7_0, Initial residual = 1, Final residual = 3.8080056e-08, No Iterations 2
GAMG:  Solving for ILambda_8_0, Initial residual = 1, Final residual = 4.9678437e-06, No Iterations 1
GAMG:  Solving for ILambda_9_0, Initial residual = 1, Final residual = 9.0812734e-05, No Iterations 1
GAMG:  Solving for ILambda_10_0, Initial residual = 1, Final residual = 9.0812734e-05, No Iterations 1
GAMG:  Solving for ILambda_11_0, Initial residual = 1, Final residual = 4.9678437e-06, No Iterations 1
GAMG:  Solving for ILambda_12_0, Initial residual = 1, Final residual = 2.7453748e-17, No Iterations 1
GAMG:  Solving for ILambda_13_0, Initial residual = 1, Final residual = 1.4533107e-16, No Iterations 1
GAMG:  Solving for ILambda_14_0, Initial residual = 1, Final residual = 1.2990104e-16, No Iterations 1
GAMG:  Solving for ILambda_15_0, Initial residual = 1, Final residual = 2.4961056e-17, No Iterations 1
Radiation solver iter: 1
GAMG:  Solving for ILambda_0_0, Initial residual = 0.090014268, Final residual = 3.5776133e-18, No Iterations 1
GAMG:  Solving for ILambda_1_0, Initial residual = 0.058740379, Final residual = 1.522478e-17, No Iterations 1
GAMG:  Solving for ILambda_2_0, Initial residual = 0.058740379, Final residual = 1.4579984e-17, No Iterations 1
GAMG:  Solving for ILambda_3_0, Initial residual = 0.090014268, Final residual = 7.2414066e-18, No Iterations 1
GAMG:  Solving for ILambda_4_0, Initial residual = 0.40223023, Final residual = 9.285614e-05, No Iterations 1
GAMG:  Solving for ILambda_5_0, Initial residual = 0.29593154, Final residual = 1.3022516e-06, No Iterations 2
GAMG:  Solving for ILambda_6_0, Initial residual = 0.29593154, Final residual = 1.3022516e-06, No Iterations 2
GAMG:  Solving for ILambda_7_0, Initial residual = 0.40223023, Final residual = 9.285614e-05, No Iterations 1
GAMG:  Solving for ILambda_8_0, Initial residual = 0.090014302, Final residual = 3.2102013e-07, No Iterations 1
GAMG:  Solving for ILambda_9_0, Initial residual = 0.058740873, Final residual = 5.4516118e-06, No Iterations 1
GAMG:  Solving for ILambda_10_0, Initial residual = 0.058740873, Final residual = 5.4516118e-06, No Iterations 1
GAMG:  Solving for ILambda_11_0, Initial residual = 0.090014302, Final residual = 3.2102013e-07, No Iterations 1
GAMG:  Solving for ILambda_12_0, Initial residual = 0.40223023, Final residual = 1.0388629e-17, No Iterations 1
GAMG:  Solving for ILambda_13_0, Initial residual = 0.29593179, Final residual = 4.6247176e-17, No Iterations 1
GAMG:  Solving for ILambda_14_0, Initial residual = 0.29593179, Final residual = 4.4591863e-17, No Iterations 1
GAMG:  Solving for ILambda_15_0, Initial residual = 0.40223023, Final residual = 1.2346616e-17, No Iterations 1
Radiation solver iter: 2
GAMG:  Solving for ILambda_0_0, Initial residual = 0.037006825, Final residual = 1.4110826e-18, No Iterations 1
GAMG:  Solving for ILambda_1_0, Initial residual = 0.027620976, Final residual = 9.8501291e-18, No Iterations 1
GAMG:  Solving for ILambda_2_0, Initial residual = 0.027620976, Final residual = 1.1868572e-17, No Iterations 1
GAMG:  Solving for ILambda_3_0, Initial residual = 0.037006825, Final residual = 1.4491613e-18, No Iterations 1
GAMG:  Solving for ILambda_4_0, Initial residual = 0.16200955, Final residual = 3.3304057e-05, No Iterations 1
GAMG:  Solving for ILambda_5_0, Initial residual = 0.1753761, Final residual = 6.4894084e-07, No Iterations 2
GAMG:  Solving for ILambda_6_0, Initial residual = 0.1753761, Final residual = 6.4894084e-07, No Iterations 2
GAMG:  Solving for ILambda_7_0, Initial residual = 0.16200955, Final residual = 3.3304057e-05, No Iterations 1
GAMG:  Solving for ILambda_8_0, Initial residual = 0.037006812, Final residual = 1.4554661e-07, No Iterations 1
GAMG:  Solving for ILambda_9_0, Initial residual = 0.027620873, Final residual = 1.9667552e-06, No Iterations 1
GAMG:  Solving for ILambda_10_0, Initial residual = 0.027620873, Final residual = 1.9667552e-06, No Iterations 1
GAMG:  Solving for ILambda_11_0, Initial residual = 0.037006812, Final residual = 1.4554661e-07, No Iterations 1
GAMG:  Solving for ILambda_12_0, Initial residual = 0.16201095, Final residual = 2.4248701e-17, No Iterations 1
GAMG:  Solving for ILambda_13_0, Initial residual = 0.1753761, Final residual = 6.2797843e-17, No Iterations 1
GAMG:  Solving for ILambda_14_0, Initial residual = 0.1753761, Final residual = 7.4330139e-17, No Iterations 1
GAMG:  Solving for ILambda_15_0, Initial residual = 0.16201095, Final residual = 3.0905534e-17, No Iterations 1
Radiation solver iter: 3
GAMG:  Solving for ILambda_0_0, Initial residual = 0.023964587, Final residual = 4.618399e-18, No Iterations 1
GAMG:  Solving for ILambda_1_0, Initial residual = 0.020063986, Final residual = 9.7795936e-18, No Iterations 1
GAMG:  Solving for ILambda_2_0, Initial residual = 0.020063986, Final residual = 1.1051779e-17, No Iterations 1
GAMG:  Solving for ILambda_3_0, Initial residual = 0.023964587, Final residual = 3.9154984e-18, No Iterations 1
GAMG:  Solving for ILambda_4_0, Initial residual = 0.12092176, Final residual = 1.4134926e-05, No Iterations 1
GAMG:  Solving for ILambda_5_0, Initial residual = 0.12443352, Final residual = 5.8309014e-07, No Iterations 2
GAMG:  Solving for ILambda_6_0, Initial residual = 0.12443352, Final residual = 5.8309014e-07, No Iterations 2
GAMG:  Solving for ILambda_7_0, Initial residual = 0.12092176, Final residual = 1.4134926e-05, No Iterations 1
GAMG:  Solving for ILambda_8_0, Initial residual = 0.023964568, Final residual = 1.0112816e-07, No Iterations 1
GAMG:  Solving for ILambda_9_0, Initial residual = 0.020064089, Final residual = 1.1160343e-06, No Iterations 1
GAMG:  Solving for ILambda_10_0, Initial residual = 0.020064089, Final residual = 1.1160343e-06, No Iterations 1
GAMG:  Solving for ILambda_11_0, Initial residual = 0.023964568, Final residual = 1.0112816e-07, No Iterations 1
GAMG:  Solving for ILambda_12_0, Initial residual = 0.1209149, Final residual = 1.8996121e-17, No Iterations 1
GAMG:  Solving for ILambda_13_0, Initial residual = 0.12443356, Final residual = 7.5964495e-17, No Iterations 1
GAMG:  Solving for ILambda_14_0, Initial residual = 0.12443356, Final residual = 7.1015281e-17, No Iterations 1
GAMG:  Solving for ILambda_15_0, Initial residual = 0.1209149, Final residual = 1.1720598e-17, No Iterations 1
Radiation solver iter: 4
GAMG:  Solving for ILambda_0_0, Initial residual = 0.017978175, Final residual = 4.8563373e-18, No Iterations 1
GAMG:  Solving for ILambda_1_0, Initial residual = 0.01574454, Final residual = 1.1855069e-17, No Iterations 1
GAMG:  Solving for ILambda_2_0, Initial residual = 0.01574454, Final residual = 1.0805912e-17, No Iterations 1
GAMG:  Solving for ILambda_3_0, Initial residual = 0.017978175, Final residual = 6.4297873e-18, No Iterations 1
GAMG:  Solving for ILambda_4_0, Initial residual = 0.097202135, Final residual = 4.9610275e-06, No Iterations 1
GAMG:  Solving for ILambda_5_0, Initial residual = 0.10330088, Final residual = 2.9249587e-07, No Iterations 2
GAMG:  Solving for ILambda_6_0, Initial residual = 0.10330088, Final residual = 2.9249587e-07, No Iterations 2
GAMG:  Solving for ILambda_7_0, Initial residual = 0.097202135, Final residual = 4.9610275e-06, No Iterations 1
GAMG:  Solving for ILambda_8_0, Initial residual = 0.017978157, Final residual = 7.7608553e-08, No Iterations 1
GAMG:  Solving for ILambda_9_0, Initial residual = 0.015744507, Final residual = 9.1392631e-07, No Iterations 1
GAMG:  Solving for ILambda_10_0, Initial residual = 0.015744507, Final residual = 9.1392631e-07, No Iterations 1
GAMG:  Solving for ILambda_11_0, Initial residual = 0.017978157, Final residual = 7.7608553e-08, No Iterations 1
GAMG:  Solving for ILambda_12_0, Initial residual = 0.09719974, Final residual = 9.3726539e-18, No Iterations 1
GAMG:  Solving for ILambda_13_0, Initial residual = 0.10330095, Final residual = 7.9156161e-17, No Iterations 1
GAMG:  Solving for ILambda_14_0, Initial residual = 0.10330095, Final residual = 8.5344865e-17, No Iterations 1
GAMG:  Solving for ILambda_15_0, Initial residual = 0.09719974, Final residual = 1.9151326e-17, No Iterations 1
Radiation solver iter: 5
GAMG:  Solving for ILambda_0_0, Initial residual = 0.014305244, Final residual = 6.1015815e-18, No Iterations 1
GAMG:  Solving for ILambda_1_0, Initial residual = 0.013278006, Final residual = 1.0503956e-17, No Iterations 1
GAMG:  Solving for ILambda_2_0, Initial residual = 0.013278006, Final residual = 1.1348453e-17, No Iterations 1
GAMG:  Solving for ILambda_3_0, Initial residual = 0.014305244, Final residual = 3.0078632e-18, No Iterations 1
GAMG:  Solving for ILambda_4_0, Initial residual = 0.076971625, Final residual = 1.9420526e-06, No Iterations 1
GAMG:  Solving for ILambda_5_0, Initial residual = 0.083395835, Final residual = 8.9311991e-05, No Iterations 1
GAMG:  Solving for ILambda_6_0, Initial residual = 0.083395835, Final residual = 8.9311991e-05, No Iterations 1
GAMG:  Solving for ILambda_7_0, Initial residual = 0.076971625, Final residual = 1.9420526e-06, No Iterations 1
GAMG:  Solving for ILambda_8_0, Initial residual = 0.014305238, Final residual = 6.3022343e-08, No Iterations 1
GAMG:  Solving for ILambda_9_0, Initial residual = 0.01327822, Final residual = 8.1482729e-07, No Iterations 1
GAMG:  Solving for ILambda_10_0, Initial residual = 0.01327822, Final residual = 8.1482729e-07, No Iterations 1
GAMG:  Solving for ILambda_11_0, Initial residual = 0.014305238, Final residual = 6.3022343e-08, No Iterations 1
GAMG:  Solving for ILambda_12_0, Initial residual = 0.076963424, Final residual = 1.8410747e-17, No Iterations 1
GAMG:  Solving for ILambda_13_0, Initial residual = 0.083395898, Final residual = 7.4945519e-17, No Iterations 1
GAMG:  Solving for ILambda_14_0, Initial residual = 0.083395898, Final residual = 8.1925708e-17, No Iterations 1
GAMG:  Solving for ILambda_15_0, Initial residual = 0.076963424, Final residual = 1.9241717e-17, No Iterations 1
Radiation solver iter: 6
GAMG:  Solving for ILambda_0_0, Initial residual = 0.012074788, Final residual = 3.5958065e-18, No Iterations 1
GAMG:  Solving for ILambda_1_0, Initial residual = 0.011710692, Final residual = 1.1798718e-17, No Iterations 1
GAMG:  Solving for ILambda_2_0, Initial residual = 0.011710692, Final residual = 1.1337575e-17, No Iterations 1
GAMG:  Solving for ILambda_3_0, Initial residual = 0.012074788, Final residual = 4.4720068e-18, No Iterations 1
GAMG:  Solving for ILambda_4_0, Initial residual = 0.065729267, Final residual = 4.8572874e-06, No Iterations 1
GAMG:  Solving for ILambda_5_0, Initial residual = 0.067364297, Final residual = 5.5396425e-05, No Iterations 1
GAMG:  Solving for ILambda_6_0, Initial residual = 0.067364297, Final residual = 5.5396425e-05, No Iterations 1
GAMG:  Solving for ILambda_7_0, Initial residual = 0.065729267, Final residual = 4.8572874e-06, No Iterations 1
GAMG:  Solving for ILambda_8_0, Initial residual = 0.012074767, Final residual = 5.6881373e-08, No Iterations 1
GAMG:  Solving for ILambda_9_0, Initial residual = 0.011710755, Final residual = 7.2883655e-07, No Iterations 1
GAMG:  Solving for ILambda_10_0, Initial residual = 0.011710755, Final residual = 7.2883655e-07, No Iterations 1
GAMG:  Solving for ILambda_11_0, Initial residual = 0.012074767, Final residual = 5.6881373e-08, No Iterations 1
GAMG:  Solving for ILambda_12_0, Initial residual = 0.06572367, Final residual = 1.7257132e-17, No Iterations 1
GAMG:  Solving for ILambda_13_0, Initial residual = 0.06736026, Final residual = 8.8773348e-17, No Iterations 1
GAMG:  Solving for ILambda_14_0, Initial residual = 0.06736026, Final residual = 8.2917879e-17, No Iterations 1
GAMG:  Solving for ILambda_15_0, Initial residual = 0.06572367, Final residual = 1.4572929e-17, No Iterations 1
Radiation solver iter: 7
GAMG:  Solving for ILambda_0_0, Initial residual = 0.010485618, Final residual = 3.5735728e-18, No Iterations 1
GAMG:  Solving for ILambda_1_0, Initial residual = 0.010697568, Final residual = 1.203348e-17, No Iterations 1
GAMG:  Solving for ILambda_2_0, Initial residual = 0.010697568, Final residual = 1.1731621e-17, No Iterations 1
GAMG:  Solving for ILambda_3_0, Initial residual = 0.010485618, Final residual = 5.6951991e-18, No Iterations 1
GAMG:  Solving for ILambda_4_0, Initial residual = 0.057343241, Final residual = 6.2831009e-06, No Iterations 1
GAMG:  Solving for ILambda_5_0, Initial residual = 0.058551785, Final residual = 5.1944473e-05, No Iterations 1
GAMG:  Solving for ILambda_6_0, Initial residual = 0.058551785, Final residual = 5.1944473e-05, No Iterations 1
GAMG:  Solving for ILambda_7_0, Initial residual = 0.057343241, Final residual = 6.2831009e-06, No Iterations 1
GAMG:  Solving for ILambda_8_0, Initial residual = 0.010485601, Final residual = 5.309221e-08, No Iterations 1
GAMG:  Solving for ILambda_9_0, Initial residual = 0.010697668, Final residual = 6.7332181e-07, No Iterations 1
GAMG:  Solving for ILambda_10_0, Initial residual = 0.010697668, Final residual = 6.7332181e-07, No Iterations 1
GAMG:  Solving for ILambda_11_0, Initial residual = 0.010485601, Final residual = 5.309221e-08, No Iterations 1
GAMG:  Solving for ILambda_12_0, Initial residual = 0.057338691, Final residual = 2.9745967e-17, No Iterations 1
GAMG:  Solving for ILambda_13_0, Initial residual = 0.058556618, Final residual = 8.2645136e-17, No Iterations 1
GAMG:  Solving for ILambda_14_0, Initial residual = 0.058556618, Final residual = 8.3859725e-17, No Iterations 1
GAMG:  Solving for ILambda_15_0, Initial residual = 0.057338691, Final residual = 3.2500613e-17, No Iterations 1
Radiation solver iter: 8
GAMG:  Solving for ILambda_0_0, Initial residual = 0.0092071798, Final residual = 4.0462405e-18, No Iterations 1
GAMG:  Solving for ILambda_1_0, Initial residual = 0.010006093, Final residual = 1.3565988e-17, No Iterations 1
GAMG:  Solving for ILambda_2_0, Initial residual = 0.010006093, Final residual = 1.1677665e-17, No Iterations 1
GAMG:  Solving for ILambda_3_0, Initial residual = 0.0092071798, Final residual = 4.7135981e-18, No Iterations 1
GAMG:  Solving for ILambda_4_0, Initial residual = 0.05021886, Final residual = 6.8074631e-06, No Iterations 1
GAMG:  Solving for ILambda_5_0, Initial residual = 0.04973478, Final residual = 4.332159e-05, No Iterations 1
GAMG:  Solving for ILambda_6_0, Initial residual = 0.04973478, Final residual = 4.332159e-05, No Iterations 1
GAMG:  Solving for ILambda_7_0, Initial residual = 0.05021886, Final residual = 6.8074631e-06, No Iterations 1
GAMG:  Solving for ILambda_8_0, Initial residual = 0.0092071753, Final residual = 5.0133369e-08, No Iterations 1
GAMG:  Solving for ILambda_9_0, Initial residual = 0.010006237, Final residual = 6.3051971e-07, No Iterations 1
GAMG:  Solving for ILambda_10_0, Initial residual = 0.010006237, Final residual = 6.3051971e-07, No Iterations 1
GAMG:  Solving for ILambda_11_0, Initial residual = 0.0092071753, Final residual = 5.0133369e-08, No Iterations 1
GAMG:  Solving for ILambda_12_0, Initial residual = 0.050214691, Final residual = 3.6440178e-17, No Iterations 1
GAMG:  Solving for ILambda_13_0, Initial residual = 0.049739629, Final residual = 9.5167003e-17, No Iterations 1
GAMG:  Solving for ILambda_14_0, Initial residual = 0.049739629, Final residual = 9.1366513e-17, No Iterations 1
GAMG:  Solving for ILambda_15_0, Initial residual = 0.050214691, Final residual = 3.3809292e-17, No Iterations 1
Radiation solver iter: 9
GAMG:  Solving for ILambda_0_0, Initial residual = 0.0082046924, Final residual = 3.5887504e-18, No Iterations 1
GAMG:  Solving for ILambda_1_0, Initial residual = 0.0095576003, Final residual = 1.1858463e-17, No Iterations 1
GAMG:  Solving for ILambda_2_0, Initial residual = 0.0095576003, Final residual = 1.3497269e-17, No Iterations 1
GAMG:  Solving for ILambda_3_0, Initial residual = 0.0082046924, Final residual = 4.2411892e-18, No Iterations 1
GAMG:  Solving for ILambda_4_0, Initial residual = 0.044937242, Final residual = 6.6900921e-06, No Iterations 1
GAMG:  Solving for ILambda_5_0, Initial residual = 0.04430536, Final residual = 2.8403267e-05, No Iterations 1
GAMG:  Solving for ILambda_6_0, Initial residual = 0.04430536, Final residual = 2.8403267e-05, No Iterations 1
GAMG:  Solving for ILambda_7_0, Initial residual = 0.044937242, Final residual = 6.6900921e-06, No Iterations 1
GAMG:  Solving for ILambda_8_0, Initial residual = 0.0082046867, Final residual = 4.7350064e-08, No Iterations 1
GAMG:  Solving for ILambda_9_0, Initial residual = 0.0095577488, Final residual = 6.0906872e-07, No Iterations 1
GAMG:  Solving for ILambda_10_0, Initial residual = 0.0095577488, Final residual = 6.0906872e-07, No Iterations 1
GAMG:  Solving for ILambda_11_0, Initial residual = 0.0082046867, Final residual = 4.7350064e-08, No Iterations 1
GAMG:  Solving for ILambda_12_0, Initial residual = 0.044934405, Final residual = 3.8706232e-17, No Iterations 1
GAMG:  Solving for ILambda_13_0, Initial residual = 0.044322461, Final residual = 8.6832538e-17, No Iterations 1
GAMG:  Solving for ILambda_14_0, Initial residual = 0.044322461, Final residual = 9.5582665e-17, No Iterations 1
GAMG:  Solving for ILambda_15_0, Initial residual = 0.044934405, Final residual = 4.4147685e-17, No Iterations 1
GAMG:  Solving for p_rgh, Initial residual = 0.53730805, Final residual = 0.00034981884, No Iterations 3
time step continuity errors : sum local = 3.3531473e-05, global = -1.4284097e-05, cumulative = -1.4284097e-05
ExecutionTime = 0.5 s  ClockTime = 1 s
Inflow      : -1.3043289e-07 [kg/s]
Outflow     : -1.4234582e-07 [kg/s]
EnergyInflow  : -0.03853799 [W]
EnergyOutflow : -0.04205781 [W]
EnergyBalance : -0.0035198201 [W]
rho max/avg/min : 1.2016452 1.2001092 1.1762176
T   max/avg/min : 299.99741 294.05464 293.7
P   max/avg/min : 101324.91 101316.16 101307.41
Prg max/avg/min : 101325 101324.99 101324.63
U   max/avg/min : 1.8946468e-05 -4.7285972e-05 -0.00052017024
Prg max-min : 0.37012396
 
sngrad(rho) :3.3625301 0.19086319 -0.00013813557
 
Iteration Number = 2

DILUPBiCG:  Solving for Ux, Initial residual = 0.30789307, Final residual = 2.4195094e-05, No Iterations 2
DILUPBiCG:  Solving for Uy, Initial residual = 5.4994383e-05, Final residual = 4.1282406e-09, No Iterations 2
DILUPBiCG:  Solving for Uz, Initial residual = 0.34750672, Final residual = 9.4281386e-06, No Iterations 2
DILUPBiCG:  Solving for h, Initial residual = 0.30980474, Final residual = 8.7641638e-05, No Iterations 1
GAMG:  Solving for p_rgh, Initial residual = 0.042007757, Final residual = 3.2253437e-05, No Iterations 3
time step continuity errors : sum local = 3.2258013e-05, global = 1.5812456e-05, cumulative = 1.5283583e-06
ExecutionTime = 0.54 s  ClockTime = 1 s
Inflow      : -2.3245823e-07 [kg/s]
Outflow     : -2.1927065e-07 [kg/s]
EnergyInflow  : -0.068682621 [W]
EnergyOutflow : -0.06478619 [W]
EnergyBalance : 0.003896431 [W]
rho max/avg/min : 1.2016452 1.1994579 1.1740929
T   max/avg/min : 300.5403 294.21618 293.7
P   max/avg/min : 101324.91 101316.16 101307.41
Prg max/avg/min : 101325 101324.98 101324.6
U   max/avg/min : 5.0073441e-05 -7.8415883e-05 -0.00055032858
Prg max-min : 0.40176808
 
sngrad(rho) :3.645827 0.28613995 -0.00013567665
 
Iteration Number = 3

DILUPBiCG:  Solving for Ux, Initial residual = 0.34307247, Final residual = 3.6913499e-05, No Iterations 2
DILUPBiCG:  Solving for Uy, Initial residual = 6.0965292e-05, Final residual = 5.9723874e-09, No Iterations 2
DILUPBiCG:  Solving for Uz, Initial residual = 0.077358915, Final residual = 2.6074086e-06, No Iterations 2
DILUPBiCG:  Solving for h, Initial residual = 0.11569999, Final residual = 4.6803793e-05, No Iterations 1
GAMG:  Solving for p_rgh, Initial residual = 0.010289563, Final residual = 5.5833448e-06, No Iterations 4
time step continuity errors : sum local = 7.7947853e-06, global = 8.7695437e-07, cumulative = 2.4053127e-06
ExecutionTime = 0.57 s  ClockTime = 1 s
Inflow      : -1.7591567e-07 [kg/s]
Outflow     : -1.7518429e-07 [kg/s]
EnergyInflow  : -0.05197643 [W]
EnergyOutflow : -0.05176031 [W]
EnergyBalance : 0.0002161197 [W]
rho max/avg/min : 1.2016452 1.1987699 1.1700067
T   max/avg/min : 301.58993 294.38779 293.70001
P   max/avg/min : 101324.91 101316.16 101307.41
Prg max/avg/min : 101325 101324.98 101324.54
U   max/avg/min : 8.7539091e-05 -5.4690371e-05 -0.00042348119
Prg max-min : 0.46199472
 
sngrad(rho) :0.59858338 0.10380161 -0.00013321052
 
Iteration Number = 4

DILUPBiCG:  Solving for Ux, Initial residual = 0.38979008, Final residual = 3.1474181e-05, No Iterations 2
DILUPBiCG:  Solving for Uy, Initial residual = 5.3756061e-05, Final residual = 4.4987109e-09, No Iterations 2
DILUPBiCG:  Solving for Uz, Initial residual = 0.2069726, Final residual = 5.9358072e-06, No Iterations 2
DILUPBiCG:  Solving for h, Initial residual = 0.093231238, Final residual = 4.3328536e-05, No Iterations 1
GAMG:  Solving for p_rgh, Initial residual = 0.0061010656, Final residual = 5.4376614e-06, No Iterations 3
time step continuity errors : sum local = 9.9176082e-06, global = -4.4572621e-06, cumulative = -2.0519494e-06
ExecutionTime = 0.6 s  ClockTime = 1 s
Inflow      : -1.3705842e-07 [kg/s]
Outflow     : -1.4077578e-07 [kg/s]
EnergyInflow  : -0.040495583 [W]
EnergyOutflow : -0.041593857 [W]
EnergyBalance : -0.0010982741 [W]
rho max/avg/min : 1.2016452 1.1980687 1.1660089
T   max/avg/min : 302.62396 294.56329 293.70001
P   max/avg/min : 101324.91 101316.16 101307.41
Prg max/avg/min : 101325 101324.97 101324.48
U   max/avg/min : 0.00013514164 -2.8880788e-05 -0.00034156629
Prg max-min : 0.52024975
 
sngrad(rho) :0.53925911 0.10392333 -0.00013084821
 
Iteration Number = 5

DILUPBiCG:  Solving for Ux, Initial residual = 0.31263597, Final residual = 1.8858319e-05, No Iterations 2
DILUPBiCG:  Solving for Uy, Initial residual = 3.7203167e-05, Final residual = 3.4267682e-09, No Iterations 2
DILUPBiCG:  Solving for Uz, Initial residual = 0.10404191, Final residual = 6.8553487e-07, No Iterations 2
DILUPBiCG:  Solving for h, Initial residual = 0.078338798, Final residual = 4.6221397e-05, No Iterations 1
GAMG:  Solving for p_rgh, Initial residual = 0.0047007829, Final residual = 4.1043176e-06, No Iterations 3
time step continuity errors : sum local = 9.1724833e-06, global = -2.686698e-07, cumulative = -2.3206192e-06
ExecutionTime = 0.63 s  ClockTime = 1 s
Inflow      : -1.1470872e-07 [kg/s]
Outflow     : -1.1493279e-07 [kg/s]
EnergyInflow  : -0.03389209 [W]
EnergyOutflow : -0.03395816 [W]
EnergyBalance : -6.6070243e-05 [W]
rho max/avg/min : 1.2016452 1.1973577 1.1622688
T   max/avg/min : 303.59778 294.74175 293.70002
P   max/avg/min : 101324.91 101316.16 101307.41
Prg max/avg/min : 101325 101324.97 101324.42
U   max/avg/min : 0.00019034253 -3.7447016e-06 -0.00028651049
Prg max-min : 0.57508529
 
sngrad(rho) :0.50190883 0.10476495 -0.00012874364
 
Iteration Number = 6

DILUPBiCG:  Solving for Ux, Initial residual = 0.25259892, Final residual = 1.2810421e-05, No Iterations 2
DILUPBiCG:  Solving for Uy, Initial residual = 3.45068e-05, Final residual = 2.8489602e-09, No Iterations 2
DILUPBiCG:  Solving for Uz, Initial residual = 0.15303825, Final residual = 1.405215e-06, No Iterations 2
DILUPBiCG:  Solving for h, Initial residual = 0.067776266, Final residual = 4.9900718e-05, No Iterations 1
GAMG:  Solving for p_rgh, Initial residual = 0.0039994213, Final residual = 5.4555415e-07, No Iterations 4
time step continuity errors : sum local = 1.4576885e-06, global = 8.9945461e-07, cumulative = -1.4211646e-06
ExecutionTime = 0.66 s  ClockTime = 1 s
Inflow      : -9.5678377e-08 [kg/s]
Outflow     : -9.4928233e-08 [kg/s]
EnergyInflow  : -0.028269344 [W]
EnergyOutflow : -0.028047453 [W]
EnergyBalance : 0.00022189134 [W]
rho max/avg/min : 1.2016451 1.1966381 1.1587677
T   max/avg/min : 304.51507 294.92285 293.70002
P   max/avg/min : 101324.91 101316.16 101307.41
Prg max/avg/min : 101325 101324.96 101324.37
U   max/avg/min : 0.00025713297 2.7882949e-05 -0.0002426665
Prg max-min : 0.62629284
 
sngrad(rho) :0.46981424 0.10599682 -0.00012883362
 
Iteration Number = 7

DILUPBiCG:  Solving for Ux, Initial residual = 0.1617624, Final residual = 7.8989179e-06, No Iterations 2
DILUPBiCG:  Solving for Uy, Initial residual = 3.0174202e-05, Final residual = 2.1968472e-09, No Iterations 2
DILUPBiCG:  Solving for Uz, Initial residual = 0.14091762, Final residual = 6.4697198e-07, No Iterations 2
DILUPBiCG:  Solving for h, Initial residual = 0.05993668, Final residual = 5.4320727e-05, No Iterations 1
GAMG:  Solving for p_rgh, Initial residual = 0.003608834, Final residual = 1.4038266e-06, No Iterations 4
time step continuity errors : sum local = 4.3573267e-06, global = 1.1107872e-06, cumulative = -3.1037742e-07
ExecutionTime = 0.69 s  ClockTime = 1 s
Inflow      : -7.9953765e-08 [kg/s]
Outflow     : -7.9027369e-08 [kg/s]
EnergyInflow  : -0.023623315 [W]
EnergyOutflow : -0.023349161 [W]
EnergyBalance : 0.00027415432 [W]
rho max/avg/min : 1.2016451 1.1959107 1.1554701
T   max/avg/min : 305.38412 295.10637 293.70002
P   max/avg/min : 101324.91 101316.16 101307.41
Prg max/avg/min : 101325 101324.96 101324.33
U   max/avg/min : 0.00033377438 6.6207788e-05 -0.0002117226
Prg max-min : 0.67457567
 
sngrad(rho) :0.4427696 0.10655787 -0.00012937595
 
Iteration Number = 8

DILUPBiCG:  Solving for Ux, Initial residual = 0.1044968, Final residual = 4.5896124e-06, No Iterations 2
DILUPBiCG:  Solving for Uy, Initial residual = 3.0274251e-05, Final residual = 2.2235665e-09, No Iterations 2
DILUPBiCG:  Solving for Uz, Initial residual = 0.14918228, Final residual = 7.5900317e-07, No Iterations 2
DILUPBiCG:  Solving for h, Initial residual = 0.053813889, Final residual = 4.9264039e-06, No Iterations 2
GAMG:  Solving for p_rgh, Initial residual = 0.0033914879, Final residual = 9.4325184e-07, No Iterations 4
time step continuity errors : sum local = 3.3436906e-06, global = 9.4557344e-07, cumulative = 6.3519602e-07
ExecutionTime = 0.72 s  ClockTime = 1 s
Inflow      : -6.7300428e-08 [kg/s]
Outflow     : -6.651182e-08 [kg/s]
EnergyInflow  : -0.019884733 [W]
EnergyOutflow : -0.019651004 [W]
EnergyBalance : 0.00023372872 [W]
rho max/avg/min : 1.2016451 1.1951752 1.1523464
T   max/avg/min : 306.21195 295.29236 293.70002
P   max/avg/min : 101324.91 101316.16 101307.41
Prg max/avg/min : 101325 101324.95 101324.28
U   max/avg/min : 0.00042245432 0.00011401036 -0.00018512404
Prg max-min : 0.72028967
 
sngrad(rho) :0.41968144 0.1074927 -0.00012942405
 
Iteration Number = 9

DILUPBiCG:  Solving for Ux, Initial residual = 0.092845957, Final residual = 3.8830583e-06, No Iterations 2
DILUPBiCG:  Solving for Uy, Initial residual = 3.4279705e-05, Final residual = 2.5081875e-09, No Iterations 2
DILUPBiCG:  Solving for Uz, Initial residual = 0.1493849, Final residual = 7.6519343e-07, No Iterations 2
DILUPBiCG:  Solving for h, Initial residual = 0.048969256, Final residual = 4.9078887e-06, No Iterations 2
GAMG:  Solving for p_rgh, Initial residual = 0.0032778984, Final residual = 6.9929818e-07, No Iterations 4
time step continuity errors : sum local = 2.8067207e-06, global = 3.7392773e-07, cumulative = 1.0091237e-06
ExecutionTime = 0.75 s  ClockTime = 1 s
Inflow      : -5.6628683e-08 [kg/s]
Outflow     : -5.6316828e-08 [kg/s]
EnergyInflow  : -0.016731635 [W]
EnergyOutflow : -0.016638344 [W]
EnergyBalance : 9.3291314e-05 [W]
rho max/avg/min : 1.2016451 1.1944329 1.1493701
T   max/avg/min : 307.00489 295.4805 293.70002
P   max/avg/min : 101324.91 101316.16 101307.41
Prg max/avg/min : 101325 101324.95 101324.24
U   max/avg/min : 0.00052668877 0.00017294337 -0.00016647197
Prg max-min : 0.76384729
 
sngrad(rho) :0.40008915 0.10833541 -0.00012848547
 
Iteration Number = 10

DILUPBiCG:  Solving for Ux, Initial residual = 0.078699726, Final residual = 2.9227656e-06, No Iterations 2
DILUPBiCG:  Solving for Uy, Initial residual = 3.7891844e-05, Final residual = 2.3131669e-09, No Iterations 2
DILUPBiCG:  Solving for Uz, Initial residual = 0.14744416, Final residual = 0.00011679995, No Iterations 1
DILUPBiCG:  Solving for h, Initial residual = 0.044974272, Final residual = 5.1830064e-06, No Iterations 2
Radiation solver iter: 0
GAMG:  Solving for ILambda_0_0, Initial residual = 0.0077596707, Final residual = 3.6077048e-18, No Iterations 1
GAMG:  Solving for ILambda_1_0, Initial residual = 0.0098215021, Final residual = 1.1690722e-17, No Iterations 1
GAMG:  Solving for ILambda_2_0, Initial residual = 0.0098215021, Final residual = 1.2658175e-17, No Iterations 1
GAMG:  Solving for ILambda_3_0, Initial residual = 0.0077596707, Final residual = 3.6206774e-18, No Iterations 1
GAMG:  Solving for ILambda_4_0, Initial residual = 0.040595111, Final residual = 6.165242e-06, No Iterations 1
GAMG:  Solving for ILambda_5_0, Initial residual = 0.038702518, Final residual = 1.8037402e-05, No Iterations 1
GAMG:  Solving for ILambda_6_0, Initial residual = 0.038702518, Final residual = 1.8037402e-05, No Iterations 1
GAMG:  Solving for ILambda_7_0, Initial residual = 0.040595111, Final residual = 6.165242e-06, No Iterations 1
GAMG:  Solving for ILambda_8_0, Initial residual = 0.0077604424, Final residual = 4.4674147e-08, No Iterations 1
GAMG:  Solving for ILambda_9_0, Initial residual = 0.0098219907, Final residual = 5.9643005e-07, No Iterations 1
GAMG:  Solving for ILambda_10_0, Initial residual = 0.0098219907, Final residual = 5.9643005e-07, No Iterations 1
GAMG:  Solving for ILambda_11_0, Initial residual = 0.0077604424, Final residual = 4.4674147e-08, No Iterations 1
GAMG:  Solving for ILambda_12_0, Initial residual = 0.0405927, Final residual = 3.1974274e-17, No Iterations 1
GAMG:  Solving for ILambda_13_0, Initial residual = 0.038715332, Final residual = 9.3372523e-17, No Iterations 1
GAMG:  Solving for ILambda_14_0, Initial residual = 0.038715332, Final residual = 9.7411763e-17, No Iterations 1
GAMG:  Solving for ILambda_15_0, Initial residual = 0.0405927, Final residual = 3.3669659e-17, No Iterations 1
Radiation solver iter: 1
GAMG:  Solving for ILambda_0_0, Initial residual = 0.007106537, Final residual = 5.6071187e-18, No Iterations 1
GAMG:  Solving for ILambda_1_0, Initial residual = 0.0093989883, Final residual = 1.3627271e-17, No Iterations 1
GAMG:  Solving for ILambda_2_0, Initial residual = 0.0093989883, Final residual = 1.3405133e-17, No Iterations 1
GAMG:  Solving for ILambda_3_0, Initial residual = 0.007106537, Final residual = 4.7192329e-18, No Iterations 1
GAMG:  Solving for ILambda_4_0, Initial residual = 0.036851504, Final residual = 5.4762064e-06, No Iterations 1
GAMG:  Solving for ILambda_5_0, Initial residual = 0.034506776, Final residual = 1.5466677e-05, No Iterations 1
GAMG:  Solving for ILambda_6_0, Initial residual = 0.034506776, Final residual = 1.5466677e-05, No Iterations 1
GAMG:  Solving for ILambda_7_0, Initial residual = 0.036851504, Final residual = 5.4762064e-06, No Iterations 1
GAMG:  Solving for ILambda_8_0, Initial residual = 0.0071075121, Final residual = 4.1141753e-08, No Iterations 1
GAMG:  Solving for ILambda_9_0, Initial residual = 0.0093994591, Final residual = 5.7699591e-07, No Iterations 1
GAMG:  Solving for ILambda_10_0, Initial residual = 0.0093994591, Final residual = 5.7699591e-07, No Iterations 1
GAMG:  Solving for ILambda_11_0, Initial residual = 0.0071075121, Final residual = 4.1141753e-08, No Iterations 1
GAMG:  Solving for ILambda_12_0, Initial residual = 0.036849306, Final residual = 4.070579e-17, No Iterations 1
GAMG:  Solving for ILambda_13_0, Initial residual = 0.034524018, Final residual = 1.0126722e-16, No Iterations 1
GAMG:  Solving for ILambda_14_0, Initial residual = 0.034524018, Final residual = 9.5886765e-17, No Iterations 1
GAMG:  Solving for ILambda_15_0, Initial residual = 0.036849306, Final residual = 3.4130727e-17, No Iterations 1
Radiation solver iter: 2
GAMG:  Solving for ILambda_0_0, Initial residual = 0.0063528201, Final residual = 3.9559833e-18, No Iterations 1
GAMG:  Solving for ILambda_1_0, Initial residual = 0.009171795, Final residual = 1.3589362e-17, No Iterations 1
GAMG:  Solving for ILambda_2_0, Initial residual = 0.009171795, Final residual = 1.3709177e-17, No Iterations 1
GAMG:  Solving for ILambda_3_0, Initial residual = 0.0063528201, Final residual = 4.4883261e-18, No Iterations 1
GAMG:  Solving for ILambda_4_0, Initial residual = 0.033531242, Final residual = 4.7674312e-06, No Iterations 1
GAMG:  Solving for ILambda_5_0, Initial residual = 0.03102548, Final residual = 1.3378964e-05, No Iterations 1
GAMG:  Solving for ILambda_6_0, Initial residual = 0.03102548, Final residual = 1.3378964e-05, No Iterations 1
GAMG:  Solving for ILambda_7_0, Initial residual = 0.033531242, Final residual = 4.7674312e-06, No Iterations 1
GAMG:  Solving for ILambda_8_0, Initial residual = 0.0063536864, Final residual = 3.7509228e-08, No Iterations 1
GAMG:  Solving for ILambda_9_0, Initial residual = 0.0091723847, Final residual = 5.7203644e-07, No Iterations 1
GAMG:  Solving for ILambda_10_0, Initial residual = 0.0091723847, Final residual = 5.7203644e-07, No Iterations 1
GAMG:  Solving for ILambda_11_0, Initial residual = 0.0063536864, Final residual = 3.7509228e-08, No Iterations 1
GAMG:  Solving for ILambda_12_0, Initial residual = 0.033529451, Final residual = 3.157736e-17, No Iterations 1
GAMG:  Solving for ILambda_13_0, Initial residual = 0.031037155, Final residual = 1.0190421e-16, No Iterations 1
GAMG:  Solving for ILambda_14_0, Initial residual = 0.031037155, Final residual = 9.6659257e-17, No Iterations 1
GAMG:  Solving for ILambda_15_0, Initial residual = 0.033529451, Final residual = 2.955383e-17, No Iterations 1
Radiation solver iter: 3
GAMG:  Solving for ILambda_0_0, Initial residual = 0.0058634432, Final residual = 4.7871986e-18, No Iterations 1
GAMG:  Solving for ILambda_1_0, Initial residual = 0.0091375725, Final residual = 1.492086e-17, No Iterations 1
GAMG:  Solving for ILambda_2_0, Initial residual = 0.0091375725, Final residual = 1.4133262e-17, No Iterations 1
GAMG:  Solving for ILambda_3_0, Initial residual = 0.0058634432, Final residual = 4.2494579e-18, No Iterations 1
GAMG:  Solving for ILambda_4_0, Initial residual = 0.031234237, Final residual = 4.1017506e-06, No Iterations 1
GAMG:  Solving for ILambda_5_0, Initial residual = 0.027712949, Final residual = 1.0040455e-05, No Iterations 1
GAMG:  Solving for ILambda_6_0, Initial residual = 0.027712949, Final residual = 1.0040455e-05, No Iterations 1
GAMG:  Solving for ILambda_7_0, Initial residual = 0.031234237, Final residual = 4.1017506e-06, No Iterations 1
GAMG:  Solving for ILambda_8_0, Initial residual = 0.0058641776, Final residual = 3.599658e-08, No Iterations 1
GAMG:  Solving for ILambda_9_0, Initial residual = 0.0091380768, Final residual = 5.8768014e-07, No Iterations 1
GAMG:  Solving for ILambda_10_0, Initial residual = 0.0091380768, Final residual = 5.8768014e-07, No Iterations 1
GAMG:  Solving for ILambda_11_0, Initial residual = 0.0058641776, Final residual = 3.599658e-08, No Iterations 1
GAMG:  Solving for ILambda_12_0, Initial residual = 0.031232512, Final residual = 2.7341292e-17, No Iterations 1
GAMG:  Solving for ILambda_13_0, Initial residual = 0.027726058, Final residual = 1.0465874e-16, No Iterations 1
GAMG:  Solving for ILambda_14_0, Initial residual = 0.027726058, Final residual = 1.0835836e-16, No Iterations 1
GAMG:  Solving for ILambda_15_0, Initial residual = 0.031232512, Final residual = 3.0266617e-17, No Iterations 1
Radiation solver iter: 4
GAMG:  Solving for ILambda_0_0, Initial residual = 0.0054444711, Final residual = 3.7240769e-18, No Iterations 1
GAMG:  Solving for ILambda_1_0, Initial residual = 0.0091506819, Final residual = 1.4857723e-17, No Iterations 1
GAMG:  Solving for ILambda_2_0, Initial residual = 0.0091506819, Final residual = 1.5449585e-17, No Iterations 1
GAMG:  Solving for ILambda_3_0, Initial residual = 0.0054444711, Final residual = 4.0686415e-18, No Iterations 1
GAMG:  Solving for ILambda_4_0, Initial residual = 0.029106144, Final residual = 3.4321093e-06, No Iterations 1
GAMG:  Solving for ILambda_5_0, Initial residual = 0.02538001, Final residual = 7.0448625e-06, No Iterations 1
GAMG:  Solving for ILambda_6_0, Initial residual = 0.02538001, Final residual = 7.0448625e-06, No Iterations 1
GAMG:  Solving for ILambda_7_0, Initial residual = 0.029106144, Final residual = 3.4321093e-06, No Iterations 1
GAMG:  Solving for ILambda_8_0, Initial residual = 0.0054450734, Final residual = 3.4644801e-08, No Iterations 1
GAMG:  Solving for ILambda_9_0, Initial residual = 0.0091511568, Final residual = 6.1112629e-07, No Iterations 1
GAMG:  Solving for ILambda_10_0, Initial residual = 0.0091511568, Final residual = 6.1112629e-07, No Iterations 1
GAMG:  Solving for ILambda_11_0, Initial residual = 0.0054450734, Final residual = 3.4644801e-08, No Iterations 1
GAMG:  Solving for ILambda_12_0, Initial residual = 0.02910381, Final residual = 2.4470629e-17, No Iterations 1
GAMG:  Solving for ILambda_13_0, Initial residual = 0.025394485, Final residual = 1.1380289e-16, No Iterations 1
GAMG:  Solving for ILambda_14_0, Initial residual = 0.025394485, Final residual = 1.0937515e-16, No Iterations 1
GAMG:  Solving for ILambda_15_0, Initial residual = 0.02910381, Final residual = 2.8133734e-17, No Iterations 1
Radiation solver iter: 5
GAMG:  Solving for ILambda_0_0, Initial residual = 0.0051004684, Final residual = 5.7236201e-18, No Iterations 1
GAMG:  Solving for ILambda_1_0, Initial residual = 0.0092434438, Final residual = 1.7617779e-17, No Iterations 1
GAMG:  Solving for ILambda_2_0, Initial residual = 0.0092434438, Final residual = 1.5904509e-17, No Iterations 1
GAMG:  Solving for ILambda_3_0, Initial residual = 0.0051004684, Final residual = 4.6689905e-18, No Iterations 1
GAMG:  Solving for ILambda_4_0, Initial residual = 0.027307916, Final residual = 2.7978861e-06, No Iterations 1
GAMG:  Solving for ILambda_5_0, Initial residual = 0.02306837, Final residual = 5.5408171e-06, No Iterations 1
GAMG:  Solving for ILambda_6_0, Initial residual = 0.02306837, Final residual = 5.5408171e-06, No Iterations 1
GAMG:  Solving for ILambda_7_0, Initial residual = 0.027307916, Final residual = 2.7978861e-06, No Iterations 1
GAMG:  Solving for ILambda_8_0, Initial residual = 0.0051009911, Final residual = 3.3390855e-08, No Iterations 1
GAMG:  Solving for ILambda_9_0, Initial residual = 0.0092439099, Final residual = 6.4796367e-07, No Iterations 1
GAMG:  Solving for ILambda_10_0, Initial residual = 0.0092439099, Final residual = 6.4796367e-07, No Iterations 1
GAMG:  Solving for ILambda_11_0, Initial residual = 0.0051009911, Final residual = 3.3390855e-08, No Iterations 1
GAMG:  Solving for ILambda_12_0, Initial residual = 0.027305868, Final residual = 2.7068547e-17, No Iterations 1
GAMG:  Solving for ILambda_13_0, Initial residual = 0.023075292, Final residual = 1.1568216e-16, No Iterations 1
GAMG:  Solving for ILambda_14_0, Initial residual = 0.023075292, Final residual = 1.0856914e-16, No Iterations 1
GAMG:  Solving for ILambda_15_0, Initial residual = 0.027305868, Final residual = 2.8438714e-17, No Iterations 1
Radiation solver iter: 6
GAMG:  Solving for ILambda_0_0, Initial residual = 0.0048021324, Final residual = 5.4390456e-18, No Iterations 1
GAMG:  Solving for ILambda_1_0, Initial residual = 0.0094114766, Final residual = 1.6482703e-17, No Iterations 1
GAMG:  Solving for ILambda_2_0, Initial residual = 0.0094114766, Final residual = 1.7050567e-17, No Iterations 1
GAMG:  Solving for ILambda_3_0, Initial residual = 0.0048021324, Final residual = 4.3249184e-18, No Iterations 1
GAMG:  Solving for ILambda_4_0, Initial residual = 0.02580813, Final residual = 2.2294852e-06, No Iterations 1
GAMG:  Solving for ILambda_5_0, Initial residual = 0.021053205, Final residual = 4.5947112e-06, No Iterations 1
GAMG:  Solving for ILambda_6_0, Initial residual = 0.021053205, Final residual = 4.5947112e-06, No Iterations 1
GAMG:  Solving for ILambda_7_0, Initial residual = 0.02580813, Final residual = 2.2294852e-06, No Iterations 1
GAMG:  Solving for ILambda_8_0, Initial residual = 0.0048025667, Final residual = 3.2402162e-08, No Iterations 1
GAMG:  Solving for ILambda_9_0, Initial residual = 0.0094119202, Final residual = 6.9782829e-07, No Iterations 1
GAMG:  Solving for ILambda_10_0, Initial residual = 0.0094119202, Final residual = 6.9782829e-07, No Iterations 1
GAMG:  Solving for ILambda_11_0, Initial residual = 0.0048025667, Final residual = 3.2402162e-08, No Iterations 1
GAMG:  Solving for ILambda_12_0, Initial residual = 0.025806069, Final residual = 2.7536264e-17, No Iterations 1
GAMG:  Solving for ILambda_13_0, Initial residual = 0.021066227, Final residual = 1.146833e-16, No Iterations 1
GAMG:  Solving for ILambda_14_0, Initial residual = 0.021066227, Final residual = 1.1712651e-16, No Iterations 1
GAMG:  Solving for ILambda_15_0, Initial residual = 0.025806069, Final residual = 2.9739138e-17, No Iterations 1
Radiation solver iter: 7
GAMG:  Solving for ILambda_0_0, Initial residual = 0.0045498559, Final residual = 5.3864712e-18, No Iterations 1
GAMG:  Solving for ILambda_1_0, Initial residual = 0.0096495782, Final residual = 1.7547962e-17, No Iterations 1
GAMG:  Solving for ILambda_2_0, Initial residual = 0.0096495782, Final residual = 1.7163984e-17, No Iterations 1
GAMG:  Solving for ILambda_3_0, Initial residual = 0.0045498559, Final residual = 4.9156086e-18, No Iterations 1
GAMG:  Solving for ILambda_4_0, Initial residual = 0.024603013, Final residual = 1.7971393e-06, No Iterations 1
GAMG:  Solving for ILambda_5_0, Initial residual = 0.019446674, Final residual = 3.5786337e-06, No Iterations 1
GAMG:  Solving for ILambda_6_0, Initial residual = 0.019446674, Final residual = 3.5786337e-06, No Iterations 1
GAMG:  Solving for ILambda_7_0, Initial residual = 0.024603013, Final residual = 1.7971393e-06, No Iterations 1
GAMG:  Solving for ILambda_8_0, Initial residual = 0.0045502435, Final residual = 3.1164612e-08, No Iterations 1
GAMG:  Solving for ILambda_9_0, Initial residual = 0.009650009, Final residual = 7.6454598e-07, No Iterations 1
GAMG:  Solving for ILambda_10_0, Initial residual = 0.009650009, Final residual = 7.6454598e-07, No Iterations 1
GAMG:  Solving for ILambda_11_0, Initial residual = 0.0045502435, Final residual = 3.1164612e-08, No Iterations 1
GAMG:  Solving for ILambda_12_0, Initial residual = 0.024602602, Final residual = 4.0136439e-17, No Iterations 1
GAMG:  Solving for ILambda_13_0, Initial residual = 0.019455542, Final residual = 1.1770151e-16, No Iterations 1
GAMG:  Solving for ILambda_14_0, Initial residual = 0.019455542, Final residual = 1.2008187e-16, No Iterations 1
GAMG:  Solving for ILambda_15_0, Initial residual = 0.024602602, Final residual = 3.7709697e-17, No Iterations 1
Radiation solver iter: 8
GAMG:  Solving for ILambda_0_0, Initial residual = 0.0043272725, Final residual = 6.207672e-18, No Iterations 1
GAMG:  Solving for ILambda_1_0, Initial residual = 0.0099519687, Final residual = 1.8400705e-17, No Iterations 1
GAMG:  Solving for ILambda_2_0, Initial residual = 0.0099519687, Final residual = 1.8548512e-17, No Iterations 1
GAMG:  Solving for ILambda_3_0, Initial residual = 0.0043272725, Final residual = 6.0899799e-18, No Iterations 1
GAMG:  Solving for ILambda_4_0, Initial residual = 0.023485675, Final residual = 1.5583523e-06, No Iterations 1
GAMG:  Solving for ILambda_5_0, Initial residual = 0.017962556, Final residual = 2.8892071e-06, No Iterations 1
GAMG:  Solving for ILambda_6_0, Initial residual = 0.017962556, Final residual = 2.8892071e-06, No Iterations 1
GAMG:  Solving for ILambda_7_0, Initial residual = 0.023485675, Final residual = 1.5583523e-06, No Iterations 1
GAMG:  Solving for ILambda_8_0, Initial residual = 0.0043276096, Final residual = 2.9726097e-08, No Iterations 1
GAMG:  Solving for ILambda_9_0, Initial residual = 0.0099523526, Final residual = 8.4669096e-07, No Iterations 1
GAMG:  Solving for ILambda_10_0, Initial residual = 0.0099523526, Final residual = 8.4669096e-07, No Iterations 1
GAMG:  Solving for ILambda_11_0, Initial residual = 0.0043276096, Final residual = 2.9726097e-08, No Iterations 1
GAMG:  Solving for ILambda_12_0, Initial residual = 0.023484722, Final residual = 4.0913486e-17, No Iterations 1
GAMG:  Solving for ILambda_13_0, Initial residual = 0.017968838, Final residual = 1.2574649e-16, No Iterations 1
GAMG:  Solving for ILambda_14_0, Initial residual = 0.017968838, Final residual = 1.2396382e-16, No Iterations 1
GAMG:  Solving for ILambda_15_0, Initial residual = 0.023484722, Final residual = 3.9444425e-17, No Iterations 1
Radiation solver iter: 9
GAMG:  Solving for ILambda_0_0, Initial residual = 0.0041242567, Final residual = 6.9410993e-18, No Iterations 1
GAMG:  Solving for ILambda_1_0, Initial residual = 0.010321506, Final residual = 1.8546972e-17, No Iterations 1
GAMG:  Solving for ILambda_2_0, Initial residual = 0.010321506, Final residual = 1.9611527e-17, No Iterations 1
GAMG:  Solving for ILambda_3_0, Initial residual = 0.0041242567, Final residual = 5.5109391e-18, No Iterations 1
GAMG:  Solving for ILambda_4_0, Initial residual = 0.022268689, Final residual = 1.4788396e-06, No Iterations 1
GAMG:  Solving for ILambda_5_0, Initial residual = 0.01661385, Final residual = 2.1924294e-06, No Iterations 1
GAMG:  Solving for ILambda_6_0, Initial residual = 0.01661385, Final residual = 2.1924294e-06, No Iterations 1
GAMG:  Solving for ILambda_7_0, Initial residual = 0.022268689, Final residual = 1.4788396e-06, No Iterations 1
GAMG:  Solving for ILambda_8_0, Initial residual = 0.0041245501, Final residual = 2.8549919e-08, No Iterations 1
GAMG:  Solving for ILambda_9_0, Initial residual = 0.010321882, Final residual = 9.5308428e-07, No Iterations 1
GAMG:  Solving for ILambda_10_0, Initial residual = 0.010321882, Final residual = 9.5308428e-07, No Iterations 1
GAMG:  Solving for ILambda_11_0, Initial residual = 0.0041245501, Final residual = 2.8549919e-08, No Iterations 1
GAMG:  Solving for ILambda_12_0, Initial residual = 0.02226755, Final residual = 3.3710992e-17, No Iterations 1
GAMG:  Solving for ILambda_13_0, Initial residual = 0.016617167, Final residual = 1.318137e-16, No Iterations 1
GAMG:  Solving for ILambda_14_0, Initial residual = 0.016617167, Final residual = 1.3043024e-16, No Iterations 1
GAMG:  Solving for ILambda_15_0, Initial residual = 0.02226755, Final residual = 3.1825765e-17, No Iterations 1
GAMG:  Solving for p_rgh, Initial residual = 0.0032423036, Final residual = 1.7270205e-06, No Iterations 4
time step continuity errors : sum local = 7.7108408e-06, global = 2.4825647e-06, cumulative = 3.4916884e-06
ExecutionTime = 1.17 s  ClockTime = 1 s
Inflow      : -5.0227525e-08 [kg/s]
Outflow     : -4.8157067e-08 [kg/s]
EnergyInflow  : -0.014840335 [W]
EnergyOutflow : -0.014226826 [W]
EnergyBalance : 0.00061350845 [W]
rho max/avg/min : 1.2016451 1.1936842 1.1465213
T   max/avg/min : 307.76771 295.67066 293.70003
P   max/avg/min : 101324.91 101316.16 101307.41
Prg max/avg/min : 101325 101324.94 101324.19
U   max/avg/min : 0.00064826226 0.00024548841 -0.00015736039
Prg max-min : 0.80553214
 
sngrad(rho) :0.38310752 0.10938058 -0.00012585408
 
Iteration Number = 11

DILUPBiCG:  Solving for Ux, Initial residual = 0.084306788, Final residual = 2.9925795e-06, No Iterations 2
DILUPBiCG:  Solving for Uy, Initial residual = 4.486951e-05, Final residual = 1.9243028e-09, No Iterations 2
DILUPBiCG:  Solving for Uz, Initial residual = 0.14546767, Final residual = 9.186098e-05, No Iterations 1
DILUPBiCG:  Solving for h, Initial residual = 0.044623115, Final residual = 3.8792781e-06, No Iterations 2
GAMG:  Solving for p_rgh, Initial residual = 0.004280894, Final residual = 1.4332631e-06, No Iterations 4
time step continuity errors : sum local = 7.0649949e-06, global = 1.55791e-06, cumulative = 5.0495984e-06
ExecutionTime = 1.2 s  ClockTime = 1 s
Inflow      : -4.2766138e-08 [kg/s]
Outflow     : -4.1466842e-08 [kg/s]
EnergyInflow  : -0.012635777 [W]
EnergyOutflow : -0.012249233 [W]
EnergyBalance : 0.0003865439 [W]
rho max/avg/min : 1.2016451 1.1930377 1.1439766
T   max/avg/min : 308.45233 295.83422 293.70004
P   max/avg/min : 101324.91 101316.16 101307.41
Prg max/avg/min : 101325 101324.94 101324.16
U   max/avg/min : 0.00079218265 0.00033426413 -0.00015413135
Prg max-min : 0.84276284
 
sngrad(rho) :0.35826737 0.10859221 -0.00012053784
 
Iteration Number = 12

DILUPBiCG:  Solving for Ux, Initial residual = 0.077765171, Final residual = 2.6958717e-06, No Iterations 2
DILUPBiCG:  Solving for Uy, Initial residual = 5.8110747e-05, Final residual = 2.159033e-09, No Iterations 2
DILUPBiCG:  Solving for Uz, Initial residual = 0.14485122, Final residual = 0.00010319373, No Iterations 1
DILUPBiCG:  Solving for h, Initial residual = 0.033001849, Final residual = 4.7153462e-06, No Iterations 2
GAMG:  Solving for p_rgh, Initial residual = 0.0036805009, Final residual = 2.4587866e-06, No Iterations 4
time step continuity errors : sum local = 1.3117929e-05, global = 4.8600861e-06, cumulative = 9.9096845e-06
ExecutionTime = 1.23 s  ClockTime = 1 s
Inflow      : -4.0101054e-08 [kg/s]
Outflow     : -3.6047745e-08 [kg/s]
EnergyInflow  : -0.011848346 [W]
EnergyOutflow : -0.01064685 [W]
EnergyBalance : 0.0012014954 [W]
rho max/avg/min : 1.201645 1.1923824 1.1414433
T   max/avg/min : 309.1369 296.00043 293.70005
P   max/avg/min : 101324.91 101316.16 101307.41
Prg max/avg/min : 101325 101324.93 101324.12
U   max/avg/min : 0.00096177761 0.00044150083 -0.00016513032
Prg max-min : 0.87980923
 
sngrad(rho) :0.34466581 0.10953031 -0.00011113287
 
Iteration Number = 13

DILUPBiCG:  Solving for Ux, Initial residual = 0.080031114, Final residual = 2.8657594e-06, No Iterations 2
DILUPBiCG:  Solving for Uy, Initial residual = 7.3859305e-05, Final residual = 2.2086852e-09, No Iterations 2
DILUPBiCG:  Solving for Uz, Initial residual = 0.14544632, Final residual = 0.00014291892, No Iterations 1
DILUPBiCG:  Solving for h, Initial residual = 0.03136405, Final residual = 5.5979949e-06, No Iterations 2
GAMG:  Solving for p_rgh, Initial residual = 0.0036773801, Final residual = 2.0229786e-06, No Iterations 4
time step continuity errors : sum local = 1.1623409e-05, global = 2.7434889e-06, cumulative = 1.2653173e-05
ExecutionTime = 1.26 s  ClockTime = 1 s
Inflow      : -3.4029201e-08 [kg/s]
Outflow     : -3.1741133e-08 [kg/s]
EnergyInflow  : -0.010054343 [W]
EnergyOutflow : -0.0093726698 [W]
EnergyBalance : 0.0006816728 [W]
rho max/avg/min : 1.2016449 1.1917233 1.1389731
T   max/avg/min : 309.80735 296.16799 293.70008
P   max/avg/min : 101324.91 101316.16 101307.41
Prg max/avg/min : 101325 101324.93 101324.08
U   max/avg/min : 0.0011638274 0.00057039511 -0.00018241566
Prg max-min : 0.91593092
 
sngrad(rho) :0.33441848 0.11015062 -9.5706988e-05
 
Iteration Number = 14

DILUPBiCG:  Solving for Ux, Initial residual = 0.074358052, Final residual = 2.769462e-06, No Iterations 2
DILUPBiCG:  Solving for Uy, Initial residual = 9.3736403e-05, Final residual = 2.4453146e-09, No Iterations 2
DILUPBiCG:  Solving for Uz, Initial residual = 0.14628418, Final residual = 1.174399e-06, No Iterations 2
DILUPBiCG:  Solving for h, Initial residual = 0.029889268, Final residual = 6.7970932e-06, No Iterations 2
GAMG:  Solving for p_rgh, Initial residual = 0.0037907867, Final residual = 3.0187076e-06, No Iterations 4
time step continuity errors : sum local = 1.8621401e-05, global = 7.613952e-06, cumulative = 2.0267125e-05
ExecutionTime = 1.29 s  ClockTime = 1 s
Inflow      : -3.4767397e-08 [kg/s]
Outflow     : -2.8417366e-08 [kg/s]
EnergyInflow  : -0.010272452 [W]
EnergyOutflow : -0.0083882192 [W]
EnergyBalance : 0.0018842325 [W]
rho max/avg/min : 1.2016447 1.1910611 1.1365699
T   max/avg/min : 310.46241 296.33663 293.70012
P   max/avg/min : 101324.91 101316.16 101307.41
Prg max/avg/min : 101325 101324.92 101324.05
U   max/avg/min : 0.0014009452 0.00072306363 -0.00023208486
Prg max-min : 0.9510414
 
sngrad(rho) :0.3250942 0.11095728 -7.2079284e-05
 
Iteration Number = 15

DILUPBiCG:  Solving for Ux, Initial residual = 0.076486059, Final residual = 2.9970393e-06, No Iterations 2
DILUPBiCG:  Solving for Uy, Initial residual = 0.00014060779, Final residual = 2.7748514e-09, No Iterations 2
DILUPBiCG:  Solving for Uz, Initial residual = 0.14577607, Final residual = 1.6591272e-06, No Iterations 2
DILUPBiCG:  Solving for h, Initial residual = 0.028563882, Final residual = 8.7141393e-06, No Iterations 2
GAMG:  Solving for p_rgh, Initial residual = 0.0039850277, Final residual = 2.5579571e-06, No Iterations 4
time step continuity errors : sum local = 1.6856485e-05, global = 3.8633789e-06, cumulative = 2.4130504e-05
ExecutionTime = 1.32 s  ClockTime = 1 s
Inflow      : -2.9094553e-08 [kg/s]
Outflow     : -2.5872497e-08 [kg/s]
EnergyInflow  : -0.0085963405 [W]
EnergyOutflow : -0.0076330095 [W]
EnergyBalance : 0.00096333105 [W]
rho max/avg/min : 1.2016444 1.190396 1.1342312
T   max/avg/min : 311.10256 296.50628 293.70019
P   max/avg/min : 101324.91 101316.16 101307.41
Prg max/avg/min : 101325 101324.92 101324.01
U   max/avg/min : 0.0016801717 0.00090326791 -0.00029916828
Prg max-min : 0.9852098
 
sngrad(rho) :0.31641698 0.11176705 -3.7185464e-05
 
Iteration Number = 16

DILUPBiCG:  Solving for Ux, Initial residual = 0.070732421, Final residual = 2.9228172e-06, No Iterations 2
DILUPBiCG:  Solving for Uy, Initial residual = 0.00018156259, Final residual = 4.4404402e-09, No Iterations 2
DILUPBiCG:  Solving for Uz, Initial residual = 0.14417722, Final residual = 1.7933803e-06, No Iterations 2
DILUPBiCG:  Solving for h, Initial residual = 0.027374724, Final residual = 1.187814e-05, No Iterations 2
GAMG:  Solving for p_rgh, Initial residual = 0.0042600673, Final residual = 3.5899136e-06, No Iterations 4
time step continuity errors : sum local = 2.5188999e-05, global = 1.109364e-05, cumulative = 3.5224145e-05
ExecutionTime = 1.35 s  ClockTime = 1 s
Inflow      : -3.3470995e-08 [kg/s]
Outflow     : -2.4218906e-08 [kg/s]
EnergyInflow  : -0.0098894138 [W]
EnergyOutflow : -0.0071399291 [W]
EnergyBalance : 0.0027494847 [W]
rho max/avg/min : 1.201644 1.1897285 1.1319527
T   max/avg/min : 311.72878 296.67683 293.70028
P   max/avg/min : 101324.91 101316.16 101307.41
Prg max/avg/min : 101325 101324.91 101323.98
U   max/avg/min : 0.0020038885 0.0011124899 -0.00040856157
Prg max-min : 1.0184493
 
sngrad(rho) :0.30838424 0.11246476 1.1830311e-05
 
Iteration Number = 17

DILUPBiCG:  Solving for Ux, Initial residual = 0.073039395, Final residual = 3.2411806e-06, No Iterations 2
DILUPBiCG:  Solving for Uy, Initial residual = 0.00022609886, Final residual = 5.0259404e-09, No Iterations 2
DILUPBiCG:  Solving for Uz, Initial residual = 0.14145531, Final residual = 2.2753413e-06, No Iterations 2
DILUPBiCG:  Solving for h, Initial residual = 0.026280009, Final residual = 1.3153555e-05, No Iterations 2
GAMG:  Solving for p_rgh, Initial residual = 0.0044863493, Final residual = 3.1139188e-06, No Iterations 4
time step continuity errors : sum local = 2.3196579e-05, global = 4.9184748e-06, cumulative = 4.0142619e-05
ExecutionTime = 1.38 s  ClockTime = 1 s
Inflow      : -2.7314455e-08 [kg/s]
Outflow     : -2.321245e-08 [kg/s]
EnergyInflow  : -0.0080703891 [W]
EnergyOutflow : -0.0068364596 [W]
EnergyBalance : 0.0012339296 [W]
rho max/avg/min : 1.2016434 1.1890584 1.1297306
T   max/avg/min : 312.34194 296.84829 293.7004
P   max/avg/min : 101324.91 101316.16 101307.41
Prg max/avg/min : 101325 101324.91 101323.95
U   max/avg/min : 0.0023776136 0.0013551571 -0.00054196841
Prg max-min : 1.0508704
 
sngrad(rho) :0.30090658 0.11347387 7.9428236e-05
 
Iteration Number = 18

DILUPBiCG:  Solving for Ux, Initial residual = 0.068239354, Final residual = 3.2305915e-06, No Iterations 2
DILUPBiCG:  Solving for Uy, Initial residual = 0.00028044078, Final residual = 7.1961366e-09, No Iterations 2
DILUPBiCG:  Solving for Uz, Initial residual = 0.1372056, Final residual = 2.2952535e-06, No Iterations 2
DILUPBiCG:  Solving for h, Initial residual = 0.025275775, Final residual = 1.0959354e-05, No Iterations 3
GAMG:  Solving for p_rgh, Initial residual = 0.0048494697, Final residual = 4.1486361e-06, No Iterations 4
time step continuity errors : sum local = 3.2710065e-05, global = 1.5191598e-05, cumulative = 5.5334217e-05
ExecutionTime = 1.42 s  ClockTime = 2 s
Inflow      : -3.5834083e-08 [kg/s]
Outflow     : -2.3164299e-08 [kg/s]
EnergyInflow  : -0.010587617 [W]
EnergyOutflow : -0.0068139808 [W]
EnergyBalance : 0.0037736361 [W]
rho max/avg/min : 1.2016423 1.1883856 1.1275605
T   max/avg/min : 312.94307 297.02072 293.70061
P   max/avg/min : 101324.91 101316.16 101307.41
Prg max/avg/min : 101325 101324.9 101323.92
U   max/avg/min : 0.0028076855 0.0016315718 -0.00073654354
Prg max-min : 1.0824369
 
sngrad(rho) :0.2941686 0.11435603 0.00019382752
 
Iteration Number = 19

DILUPBiCG:  Solving for Ux, Initial residual = 0.071186042, Final residual = 3.7331073e-06, No Iterations 2
DILUPBiCG:  Solving for Uy, Initial residual = 0.00036759826, Final residual = 1.0969981e-08, No Iterations 2
DILUPBiCG:  Solving for Uz, Initial residual = 0.13222596, Final residual = 2.799926e-06, No Iterations 2
DILUPBiCG:  Solving for h, Initial residual = 0.024350979, Final residual = 1.5205304e-05, No Iterations 3
GAMG:  Solving for p_rgh, Initial residual = 0.0050766873, Final residual = 3.6345303e-06, No Iterations 4
time step continuity errors : sum local = 3.0241158e-05, global = 5.6259275e-06, cumulative = 6.0960145e-05
ExecutionTime = 1.44 s  ClockTime = 2 s
Inflow      : -2.8050938e-08 [kg/s]
Outflow     : -2.3358918e-08 [kg/s]
EnergyInflow  : -0.0082879918 [W]
EnergyOutflow : -0.0068603572 [W]
EnergyBalance : 0.0014276346 [W]
rho max/avg/min : 1.2016407 1.1877106 1.1254392
T   max/avg/min : 313.53293 297.19394 293.70089
P   max/avg/min : 101324.91 101316.16 101307.41
Prg max/avg/min : 101325 101324.9 101323.89
U   max/avg/min : 0.003340306 0.0019474894 -0.00094636267
Prg max-min : 1.113303
 
sngrad(rho) :0.28783523 0.11550785 0.00034641729
 
Iteration Number = 20

DILUPBiCG:  Solving for Ux, Initial residual = 0.067307963, Final residual = 3.8538768e-06, No Iterations 2
DILUPBiCG:  Solving for Uy, Initial residual = 0.00047230662, Final residual = 1.5476745e-08, No Iterations 2
DILUPBiCG:  Solving for Uz, Initial residual = 0.1258445, Final residual = 2.6038952e-06, No Iterations 2
DILUPBiCG:  Solving for h, Initial residual = 0.023489776, Final residual = 1.9485139e-05, No Iterations 3
Radiation solver iter: 0
GAMG:  Solving for ILambda_0_0, Initial residual = 0.0040047768, Final residual = 5.8007948e-18, No Iterations 1
GAMG:  Solving for ILambda_1_0, Initial residual = 0.010888183, Final residual = 1.9904484e-17, No Iterations 1
GAMG:  Solving for ILambda_2_0, Initial residual = 0.010888183, Final residual = 2.0066341e-17, No Iterations 1
GAMG:  Solving for ILambda_3_0, Initial residual = 0.0040047768, Final residual = 6.2063254e-18, No Iterations 1
GAMG:  Solving for ILambda_4_0, Initial residual = 0.020936492, Final residual = 1.3834558e-06, No Iterations 1
GAMG:  Solving for ILambda_5_0, Initial residual = 0.015497038, Final residual = 1.6787505e-06, No Iterations 1
GAMG:  Solving for ILambda_6_0, Initial residual = 0.015497038, Final residual = 1.6787505e-06, No Iterations 1
GAMG:  Solving for ILambda_7_0, Initial residual = 0.020936492, Final residual = 1.3834558e-06, No Iterations 1
GAMG:  Solving for ILambda_8_0, Initial residual = 0.0040069377, Final residual = 2.7533549e-08, No Iterations 1
GAMG:  Solving for ILambda_9_0, Initial residual = 0.010889908, Final residual = 1.0736881e-06, No Iterations 1
GAMG:  Solving for ILambda_10_0, Initial residual = 0.010889908, Final residual = 1.0736881e-06, No Iterations 1
GAMG:  Solving for ILambda_11_0, Initial residual = 0.0040069377, Final residual = 2.7533549e-08, No Iterations 1
GAMG:  Solving for ILambda_12_0, Initial residual = 0.020936394, Final residual = 3.2623528e-17, No Iterations 1
GAMG:  Solving for ILambda_13_0, Initial residual = 0.015504636, Final residual = 1.4001333e-16, No Iterations 1
GAMG:  Solving for ILambda_14_0, Initial residual = 0.015504636, Final residual = 1.3371251e-16, No Iterations 1
GAMG:  Solving for ILambda_15_0, Initial residual = 0.020936394, Final residual = 3.2596937e-17, No Iterations 1
Radiation solver iter: 1
GAMG:  Solving for ILambda_0_0, Initial residual = 0.0038451044, Final residual = 4.8907184e-18, No Iterations 1
GAMG:  Solving for ILambda_1_0, Initial residual = 0.011340603, Final residual = 2.0712155e-17, No Iterations 1
GAMG:  Solving for ILambda_2_0, Initial residual = 0.011340603, Final residual = 2.0724737e-17, No Iterations 1
GAMG:  Solving for ILambda_3_0, Initial residual = 0.0038451044, Final residual = 6.0159745e-18, No Iterations 1
GAMG:  Solving for ILambda_4_0, Initial residual = 0.019776482, Final residual = 1.298577e-06, No Iterations 1
GAMG:  Solving for ILambda_5_0, Initial residual = 0.014519613, Final residual = 1.4817058e-06, No Iterations 1
GAMG:  Solving for ILambda_6_0, Initial residual = 0.014519613, Final residual = 1.4817058e-06, No Iterations 1
GAMG:  Solving for ILambda_7_0, Initial residual = 0.019776482, Final residual = 1.298577e-06, No Iterations 1
GAMG:  Solving for ILambda_8_0, Initial residual = 0.0038472888, Final residual = 2.6908118e-08, No Iterations 1
GAMG:  Solving for ILambda_9_0, Initial residual = 0.011342354, Final residual = 1.2185345e-06, No Iterations 1
GAMG:  Solving for ILambda_10_0, Initial residual = 0.011342354, Final residual = 1.2185345e-06, No Iterations 1
GAMG:  Solving for ILambda_11_0, Initial residual = 0.0038472888, Final residual = 2.6908118e-08, No Iterations 1
GAMG:  Solving for ILambda_12_0, Initial residual = 0.019777139, Final residual = 3.4839289e-17, No Iterations 1
GAMG:  Solving for ILambda_13_0, Initial residual = 0.014524686, Final residual = 1.3903603e-16, No Iterations 1
GAMG:  Solving for ILambda_14_0, Initial residual = 0.014524686, Final residual = 1.4051359e-16, No Iterations 1
GAMG:  Solving for ILambda_15_0, Initial residual = 0.019777139, Final residual = 2.8069169e-17, No Iterations 1
Radiation solver iter: 2
GAMG:  Solving for ILambda_0_0, Initial residual = 0.0036688662, Final residual = 6.2443841e-18, No Iterations 1
GAMG:  Solving for ILambda_1_0, Initial residual = 0.01187918, Final residual = 2.2728934e-17, No Iterations 1
GAMG:  Solving for ILambda_2_0, Initial residual = 0.01187918, Final residual = 2.197204e-17, No Iterations 1
GAMG:  Solving for ILambda_3_0, Initial residual = 0.0036688662, Final residual = 6.168886e-18, No Iterations 1
GAMG:  Solving for ILambda_4_0, Initial residual = 0.018809333, Final residual = 1.2161471e-06, No Iterations 1
GAMG:  Solving for ILambda_5_0, Initial residual = 0.013598181, Final residual = 1.1714326e-06, No Iterations 1
GAMG:  Solving for ILambda_6_0, Initial residual = 0.013598181, Final residual = 1.1714326e-06, No Iterations 1
GAMG:  Solving for ILambda_7_0, Initial residual = 0.018809333, Final residual = 1.2161471e-06, No Iterations 1
GAMG:  Solving for ILambda_8_0, Initial residual = 0.0036709468, Final residual = 2.6328123e-08, No Iterations 1
GAMG:  Solving for ILambda_9_0, Initial residual = 0.011880766, Final residual = 1.3769734e-06, No Iterations 1
GAMG:  Solving for ILambda_10_0, Initial residual = 0.011880766, Final residual = 1.3769734e-06, No Iterations 1
GAMG:  Solving for ILambda_11_0, Initial residual = 0.0036709468, Final residual = 2.6328123e-08, No Iterations 1
GAMG:  Solving for ILambda_12_0, Initial residual = 0.018809621, Final residual = 3.237088e-17, No Iterations 1
GAMG:  Solving for ILambda_13_0, Initial residual = 0.013600891, Final residual = 1.4678732e-16, No Iterations 1
GAMG:  Solving for ILambda_14_0, Initial residual = 0.013600891, Final residual = 1.4613025e-16, No Iterations 1
GAMG:  Solving for ILambda_15_0, Initial residual = 0.018809621, Final residual = 3.00283e-17, No Iterations 1
Radiation solver iter: 3
GAMG:  Solving for ILambda_0_0, Initial residual = 0.0035318874, Final residual = 5.3183586e-18, No Iterations 1
GAMG:  Solving for ILambda_1_0, Initial residual = 0.012507348, Final residual = 2.3893834e-17, No Iterations 1
GAMG:  Solving for ILambda_2_0, Initial residual = 0.012507348, Final residual = 2.5596547e-17, No Iterations 1
GAMG:  Solving for ILambda_3_0, Initial residual = 0.0035318874, Final residual = 6.3662585e-18, No Iterations 1
GAMG:  Solving for ILambda_4_0, Initial residual = 0.017908238, Final residual = 1.1294822e-06, No Iterations 1
GAMG:  Solving for ILambda_5_0, Initial residual = 0.012806752, Final residual = 9.0394365e-07, No Iterations 1
GAMG:  Solving for ILambda_6_0, Initial residual = 0.012806752, Final residual = 9.0394365e-07, No Iterations 1
GAMG:  Solving for ILambda_7_0, Initial residual = 0.017908238, Final residual = 1.1294822e-06, No Iterations 1
GAMG:  Solving for ILambda_8_0, Initial residual = 0.0035338296, Final residual = 2.5729524e-08, No Iterations 1
GAMG:  Solving for ILambda_9_0, Initial residual = 0.012508789, Final residual = 1.5624121e-06, No Iterations 1
GAMG:  Solving for ILambda_10_0, Initial residual = 0.012508789, Final residual = 1.5624121e-06, No Iterations 1
GAMG:  Solving for ILambda_11_0, Initial residual = 0.0035338296, Final residual = 2.5729524e-08, No Iterations 1
GAMG:  Solving for ILambda_12_0, Initial residual = 0.017908366, Final residual = 3.1683074e-17, No Iterations 1
GAMG:  Solving for ILambda_13_0, Initial residual = 0.012812894, Final residual = 1.5557151e-16, No Iterations 1
GAMG:  Solving for ILambda_14_0, Initial residual = 0.012812894, Final residual = 1.5642665e-16, No Iterations 1
GAMG:  Solving for ILambda_15_0, Initial residual = 0.017908366, Final residual = 3.2906774e-17, No Iterations 1
Radiation solver iter: 4
GAMG:  Solving for ILambda_0_0, Initial residual = 0.0034034179, Final residual = 6.0304138e-18, No Iterations 1
GAMG:  Solving for ILambda_1_0, Initial residual = 0.013209281, Final residual = 2.595125e-17, No Iterations 1
GAMG:  Solving for ILambda_2_0, Initial residual = 0.013209281, Final residual = 2.536012e-17, No Iterations 1
GAMG:  Solving for ILambda_3_0, Initial residual = 0.0034034179, Final residual = 7.0511724e-18, No Iterations 1
GAMG:  Solving for ILambda_4_0, Initial residual = 0.017018939, Final residual = 1.0365696e-06, No Iterations 1
GAMG:  Solving for ILambda_5_0, Initial residual = 0.012149425, Final residual = 7.5429119e-07, No Iterations 1
GAMG:  Solving for ILambda_6_0, Initial residual = 0.012149425, Final residual = 7.5429119e-07, No Iterations 1
GAMG:  Solving for ILambda_7_0, Initial residual = 0.017018939, Final residual = 1.0365696e-06, No Iterations 1
GAMG:  Solving for ILambda_8_0, Initial residual = 0.0034052661, Final residual = 2.5006638e-08, No Iterations 1
GAMG:  Solving for ILambda_9_0, Initial residual = 0.013210541, Final residual = 1.7923602e-06, No Iterations 1
GAMG:  Solving for ILambda_10_0, Initial residual = 0.013210541, Final residual = 1.7923602e-06, No Iterations 1
GAMG:  Solving for ILambda_11_0, Initial residual = 0.0034052661, Final residual = 2.5006638e-08, No Iterations 1
GAMG:  Solving for ILambda_12_0, Initial residual = 0.017018762, Final residual = 4.0064533e-17, No Iterations 1
GAMG:  Solving for ILambda_13_0, Initial residual = 0.012153722, Final residual = 1.579745e-16, No Iterations 1
GAMG:  Solving for ILambda_14_0, Initial residual = 0.012153722, Final residual = 1.6592031e-16, No Iterations 1
GAMG:  Solving for ILambda_15_0, Initial residual = 0.017018762, Final residual = 4.0246188e-17, No Iterations 1
Radiation solver iter: 5
GAMG:  Solving for ILambda_0_0, Initial residual = 0.0032880853, Final residual = 6.9403619e-18, No Iterations 1
GAMG:  Solving for ILambda_1_0, Initial residual = 0.013996381, Final residual = 2.6793456e-17, No Iterations 1
GAMG:  Solving for ILambda_2_0, Initial residual = 0.013996381, Final residual = 2.6719654e-17, No Iterations 1
GAMG:  Solving for ILambda_3_0, Initial residual = 0.0032880853, Final residual = 5.5841497e-18, No Iterations 1
GAMG:  Solving for ILambda_4_0, Initial residual = 0.016321338, Final residual = 9.3814565e-07, No Iterations 1
GAMG:  Solving for ILambda_5_0, Initial residual = 0.011541379, Final residual = 6.0253331e-07, No Iterations 1
GAMG:  Solving for ILambda_6_0, Initial residual = 0.011541379, Final residual = 6.0253331e-07, No Iterations 1
GAMG:  Solving for ILambda_7_0, Initial residual = 0.016321338, Final residual = 9.3814565e-07, No Iterations 1
GAMG:  Solving for ILambda_8_0, Initial residual = 0.0032898183, Final residual = 2.4312211e-08, No Iterations 1
GAMG:  Solving for ILambda_9_0, Initial residual = 0.013997482, Final residual = 2.0577433e-06, No Iterations 1
GAMG:  Solving for ILambda_10_0, Initial residual = 0.013997482, Final residual = 2.0577433e-06, No Iterations 1
GAMG:  Solving for ILambda_11_0, Initial residual = 0.0032898183, Final residual = 2.4312211e-08, No Iterations 1
GAMG:  Solving for ILambda_12_0, Initial residual = 0.016322083, Final residual = 3.7492806e-17, No Iterations 1
GAMG:  Solving for ILambda_13_0, Initial residual = 0.011544392, Final residual = 1.7193876e-16, No Iterations 1
GAMG:  Solving for ILambda_14_0, Initial residual = 0.011544392, Final residual = 1.7328257e-16, No Iterations 1
GAMG:  Solving for ILambda_15_0, Initial residual = 0.016322083, Final residual = 3.9137619e-17, No Iterations 1
Radiation solver iter: 6
GAMG:  Solving for ILambda_0_0, Initial residual = 0.0031846647, Final residual = 5.1968957e-18, No Iterations 1
GAMG:  Solving for ILambda_1_0, Initial residual = 0.014879484, Final residual = 2.9051035e-17, No Iterations 1
GAMG:  Solving for ILambda_2_0, Initial residual = 0.014879484, Final residual = 2.9049314e-17, No Iterations 1
GAMG:  Solving for ILambda_3_0, Initial residual = 0.0031846647, Final residual = 5.6393536e-18, No Iterations 1
GAMG:  Solving for ILambda_4_0, Initial residual = 0.015789262, Final residual = 8.7943897e-07, No Iterations 1
GAMG:  Solving for ILambda_5_0, Initial residual = 0.011010685, Final residual = 4.8555885e-07, No Iterations 1
GAMG:  Solving for ILambda_6_0, Initial residual = 0.011010685, Final residual = 4.8555885e-07, No Iterations 1
GAMG:  Solving for ILambda_7_0, Initial residual = 0.015789262, Final residual = 8.7943897e-07, No Iterations 1
GAMG:  Solving for ILambda_8_0, Initial residual = 0.0031862748, Final residual = 2.3602087e-08, No Iterations 1
GAMG:  Solving for ILambda_9_0, Initial residual = 0.014880365, Final residual = 2.4012545e-06, No Iterations 1
GAMG:  Solving for ILambda_10_0, Initial residual = 0.014880365, Final residual = 2.4012545e-06, No Iterations 1
GAMG:  Solving for ILambda_11_0, Initial residual = 0.0031862748, Final residual = 2.3602087e-08, No Iterations 1
GAMG:  Solving for ILambda_12_0, Initial residual = 0.015789929, Final residual = 3.7001182e-17, No Iterations 1
GAMG:  Solving for ILambda_13_0, Initial residual = 0.011013416, Final residual = 1.7950778e-16, No Iterations 1
GAMG:  Solving for ILambda_14_0, Initial residual = 0.011013416, Final residual = 1.7203424e-16, No Iterations 1
GAMG:  Solving for ILambda_15_0, Initial residual = 0.015789929, Final residual = 3.5237987e-17, No Iterations 1
Radiation solver iter: 7
GAMG:  Solving for ILambda_0_0, Initial residual = 0.0030867525, Final residual = 6.6170212e-18, No Iterations 1
GAMG:  Solving for ILambda_1_0, Initial residual = 0.01587442, Final residual = 3.1124516e-17, No Iterations 1
GAMG:  Solving for ILambda_2_0, Initial residual = 0.01587442, Final residual = 3.0568395e-17, No Iterations 1
GAMG:  Solving for ILambda_3_0, Initial residual = 0.0030867525, Final residual = 5.8597024e-18, No Iterations 1
GAMG:  Solving for ILambda_4_0, Initial residual = 0.015238814, Final residual = 8.2902557e-07, No Iterations 1
GAMG:  Solving for ILambda_5_0, Initial residual = 0.010562399, Final residual = 4.1299771e-07, No Iterations 1
GAMG:  Solving for ILambda_6_0, Initial residual = 0.010562399, Final residual = 4.1299771e-07, No Iterations 1
GAMG:  Solving for ILambda_7_0, Initial residual = 0.015238814, Final residual = 8.2902557e-07, No Iterations 1
GAMG:  Solving for ILambda_8_0, Initial residual = 0.0030883012, Final residual = 2.2927683e-08, No Iterations 1
GAMG:  Solving for ILambda_9_0, Initial residual = 0.015875004, Final residual = 2.8006037e-06, No Iterations 1
GAMG:  Solving for ILambda_10_0, Initial residual = 0.015875004, Final residual = 2.8006037e-06, No Iterations 1
GAMG:  Solving for ILambda_11_0, Initial residual = 0.0030883012, Final residual = 2.2927683e-08, No Iterations 1
GAMG:  Solving for ILambda_12_0, Initial residual = 0.015239274, Final residual = 3.2192314e-17, No Iterations 1
GAMG:  Solving for ILambda_13_0, Initial residual = 0.010566336, Final residual = 2.0056895e-16, No Iterations 1
GAMG:  Solving for ILambda_14_0, Initial residual = 0.010566336, Final residual = 1.9227211e-16, No Iterations 1
GAMG:  Solving for ILambda_15_0, Initial residual = 0.015239274, Final residual = 3.3807599e-17, No Iterations 1
Radiation solver iter: 8
GAMG:  Solving for ILambda_0_0, Initial residual = 0.0029967644, Final residual = 5.5616038e-18, No Iterations 1
GAMG:  Solving for ILambda_1_0, Initial residual = 0.016971587, Final residual = 3.3224025e-17, No Iterations 1
GAMG:  Solving for ILambda_2_0, Initial residual = 0.016971587, Final residual = 3.2570715e-17, No Iterations 1
GAMG:  Solving for ILambda_3_0, Initial residual = 0.0029967644, Final residual = 5.6077749e-18, No Iterations 1
GAMG:  Solving for ILambda_4_0, Initial residual = 0.014668901, Final residual = 7.6218626e-07, No Iterations 1
GAMG:  Solving for ILambda_5_0, Initial residual = 0.01019172, Final residual = 3.2022214e-07, No Iterations 1
GAMG:  Solving for ILambda_6_0, Initial residual = 0.01019172, Final residual = 3.2022214e-07, No Iterations 1
GAMG:  Solving for ILambda_7_0, Initial residual = 0.014668901, Final residual = 7.6218626e-07, No Iterations 1
GAMG:  Solving for ILambda_8_0, Initial residual = 0.0029982708, Final residual = 2.2329083e-08, No Iterations 1
GAMG:  Solving for ILambda_9_0, Initial residual = 0.016971791, Final residual = 3.2369042e-06, No Iterations 1
GAMG:  Solving for ILambda_10_0, Initial residual = 0.016971791, Final residual = 3.2369042e-06, No Iterations 1
GAMG:  Solving for ILambda_11_0, Initial residual = 0.0029982708, Final residual = 2.2329083e-08, No Iterations 1
GAMG:  Solving for ILambda_12_0, Initial residual = 0.014669163, Final residual = 3.1559429e-17, No Iterations 1
GAMG:  Solving for ILambda_13_0, Initial residual = 0.01019492, Final residual = 2.0562936e-16, No Iterations 1
GAMG:  Solving for ILambda_14_0, Initial residual = 0.01019492, Final residual = 2.0144005e-16, No Iterations 1
GAMG:  Solving for ILambda_15_0, Initial residual = 0.014669163, Final residual = 3.1049162e-17, No Iterations 1
Radiation solver iter: 9
GAMG:  Solving for ILambda_0_0, Initial residual = 0.0029157122, Final residual = 6.5142119e-18, No Iterations 1
GAMG:  Solving for ILambda_1_0, Initial residual = 0.018199801, Final residual = 3.5841067e-17, No Iterations 1
GAMG:  Solving for ILambda_2_0, Initial residual = 0.018199801, Final residual = 3.4412323e-17, No Iterations 1
GAMG:  Solving for ILambda_3_0, Initial residual = 0.0029157122, Final residual = 6.0009318e-18, No Iterations 1
GAMG:  Solving for ILambda_4_0, Initial residual = 0.014084478, Final residual = 7.1361551e-07, No Iterations 1
GAMG:  Solving for ILambda_5_0, Initial residual = 0.0098818388, Final residual = 2.6559691e-07, No Iterations 1
GAMG:  Solving for ILambda_6_0, Initial residual = 0.0098818388, Final residual = 2.6559691e-07, No Iterations 1
GAMG:  Solving for ILambda_7_0, Initial residual = 0.014084478, Final residual = 7.1361551e-07, No Iterations 1
[...]
GAMG:  Solving for ILambda_8_0, Initial residual = 9.9755531e-05, Final residual = 9.9755531e-05, No Iterations 0
GAMG:  Solving for ILambda_9_0, Initial residual = 9.0968702e-05, Final residual = 9.0968702e-05, No Iterations 0
GAMG:  Solving for ILambda_10_0, Initial residual = 9.0968702e-05, Final residual = 9.0968702e-05, No Iterations 0
GAMG:  Solving for ILambda_11_0, Initial residual = 9.9755531e-05, Final residual = 9.9755531e-05, No Iterations 0
GAMG:  Solving for ILambda_12_0, Initial residual = 9.9128458e-05, Final residual = 9.9128458e-05, No Iterations 0
GAMG:  Solving for ILambda_13_0, Initial residual = 9.4431839e-05, Final residual = 9.4431839e-05, No Iterations 0
GAMG:  Solving for ILambda_14_0, Initial residual = 9.4431839e-05, Final residual = 9.4431839e-05, No Iterations 0
GAMG:  Solving for ILambda_15_0, Initial residual = 9.9128458e-05, Final residual = 9.9128458e-05, No Iterations 0
Radiation solver iter: 4
GAMG:  Solving for ILambda_0_0, Initial residual = 9.9588094e-05, Final residual = 9.9588094e-05, No Iterations 0
GAMG:  Solving for ILambda_1_0, Initial residual = 9.6649204e-05, Final residual = 9.6649204e-05, No Iterations 0
GAMG:  Solving for ILambda_2_0, Initial residual = 9.6649204e-05, Final residual = 9.6649204e-05, No Iterations 0
GAMG:  Solving for ILambda_3_0, Initial residual = 9.9588094e-05, Final residual = 9.9588094e-05, No Iterations 0
GAMG:  Solving for ILambda_4_0, Initial residual = 9.4451091e-05, Final residual = 9.4451091e-05, No Iterations 0
GAMG:  Solving for ILambda_5_0, Initial residual = 9.7654788e-05, Final residual = 9.7654788e-05, No Iterations 0
GAMG:  Solving for ILambda_6_0, Initial residual = 9.7654788e-05, Final residual = 9.7654788e-05, No Iterations 0
GAMG:  Solving for ILambda_7_0, Initial residual = 9.4451091e-05, Final residual = 9.4451091e-05, No Iterations 0
GAMG:  Solving for ILambda_8_0, Initial residual = 9.9755531e-05, Final residual = 9.9755531e-05, No Iterations 0
GAMG:  Solving for ILambda_9_0, Initial residual = 9.0968702e-05, Final residual = 9.0968702e-05, No Iterations 0
GAMG:  Solving for ILambda_10_0, Initial residual = 9.0968702e-05, Final residual = 9.0968702e-05, No Iterations 0
GAMG:  Solving for ILambda_11_0, Initial residual = 9.9755531e-05, Final residual = 9.9755531e-05, No Iterations 0
GAMG:  Solving for ILambda_12_0, Initial residual = 9.9128458e-05, Final residual = 9.9128458e-05, No Iterations 0
GAMG:  Solving for ILambda_13_0, Initial residual = 9.4431839e-05, Final residual = 9.4431839e-05, No Iterations 0
GAMG:  Solving for ILambda_14_0, Initial residual = 9.4431839e-05, Final residual = 9.4431839e-05, No Iterations 0
GAMG:  Solving for ILambda_15_0, Initial residual = 9.9128458e-05, Final residual = 9.9128458e-05, No Iterations 0
Radiation solver iter: 5
GAMG:  Solving for ILambda_0_0, Initial residual = 9.9588094e-05, Final residual = 9.9588094e-05, No Iterations 0
GAMG:  Solving for ILambda_1_0, Initial residual = 9.6649204e-05, Final residual = 9.6649204e-05, No Iterations 0
GAMG:  Solving for ILambda_2_0, Initial residual = 9.6649204e-05, Final residual = 9.6649204e-05, No Iterations 0
GAMG:  Solving for ILambda_3_0, Initial residual = 9.9588094e-05, Final residual = 9.9588094e-05, No Iterations 0
GAMG:  Solving for ILambda_4_0, Initial residual = 9.4451091e-05, Final residual = 9.4451091e-05, No Iterations 0
GAMG:  Solving for ILambda_5_0, Initial residual = 9.7654788e-05, Final residual = 9.7654788e-05, No Iterations 0
GAMG:  Solving for ILambda_6_0, Initial residual = 9.7654788e-05, Final residual = 9.7654788e-05, No Iterations 0
GAMG:  Solving for ILambda_7_0, Initial residual = 9.4451091e-05, Final residual = 9.4451091e-05, No Iterations 0
GAMG:  Solving for ILambda_8_0, Initial residual = 9.9755531e-05, Final residual = 9.9755531e-05, No Iterations 0
GAMG:  Solving for ILambda_9_0, Initial residual = 9.0968702e-05, Final residual = 9.0968702e-05, No Iterations 0
GAMG:  Solving for ILambda_10_0, Initial residual = 9.0968702e-05, Final residual = 9.0968702e-05, No Iterations 0
GAMG:  Solving for ILambda_11_0, Initial residual = 9.9755531e-05, Final residual = 9.9755531e-05, No Iterations 0
GAMG:  Solving for ILambda_12_0, Initial residual = 9.9128458e-05, Final residual = 9.9128458e-05, No Iterations 0
GAMG:  Solving for ILambda_13_0, Initial residual = 9.4431839e-05, Final residual = 9.4431839e-05, No Iterations 0
GAMG:  Solving for ILambda_14_0, Initial residual = 9.4431839e-05, Final residual = 9.4431839e-05, No Iterations 0
GAMG:  Solving for ILambda_15_0, Initial residual = 9.9128458e-05, Final residual = 9.9128458e-05, No Iterations 0
Radiation solver iter: 6
GAMG:  Solving for ILambda_0_0, Initial residual = 9.9588094e-05, Final residual = 9.9588094e-05, No Iterations 0
GAMG:  Solving for ILambda_1_0, Initial residual = 9.6649204e-05, Final residual = 9.6649204e-05, No Iterations 0
GAMG:  Solving for ILambda_2_0, Initial residual = 9.6649204e-05, Final residual = 9.6649204e-05, No Iterations 0
GAMG:  Solving for ILambda_3_0, Initial residual = 9.9588094e-05, Final residual = 9.9588094e-05, No Iterations 0
GAMG:  Solving for ILambda_4_0, Initial residual = 9.4451091e-05, Final residual = 9.4451091e-05, No Iterations 0
GAMG:  Solving for ILambda_5_0, Initial residual = 9.7654788e-05, Final residual = 9.7654788e-05, No Iterations 0
GAMG:  Solving for ILambda_6_0, Initial residual = 9.7654788e-05, Final residual = 9.7654788e-05, No Iterations 0
GAMG:  Solving for ILambda_7_0, Initial residual = 9.4451091e-05, Final residual = 9.4451091e-05, No Iterations 0
GAMG:  Solving for ILambda_8_0, Initial residual = 9.9755531e-05, Final residual = 9.9755531e-05, No Iterations 0
GAMG:  Solving for ILambda_9_0, Initial residual = 9.0968702e-05, Final residual = 9.0968702e-05, No Iterations 0
GAMG:  Solving for ILambda_10_0, Initial residual = 9.0968702e-05, Final residual = 9.0968702e-05, No Iterations 0
GAMG:  Solving for ILambda_11_0, Initial residual = 9.9755531e-05, Final residual = 9.9755531e-05, No Iterations 0
GAMG:  Solving for ILambda_12_0, Initial residual = 9.9128458e-05, Final residual = 9.9128458e-05, No Iterations 0
GAMG:  Solving for ILambda_13_0, Initial residual = 9.4431839e-05, Final residual = 9.4431839e-05, No Iterations 0
GAMG:  Solving for ILambda_14_0, Initial residual = 9.4431839e-05, Final residual = 9.4431839e-05, No Iterations 0
GAMG:  Solving for ILambda_15_0, Initial residual = 9.9128458e-05, Final residual = 9.9128458e-05, No Iterations 0
Radiation solver iter: 7
GAMG:  Solving for ILambda_0_0, Initial residual = 9.9588094e-05, Final residual = 9.9588094e-05, No Iterations 0
GAMG:  Solving for ILambda_1_0, Initial residual = 9.6649204e-05, Final residual = 9.6649204e-05, No Iterations 0
GAMG:  Solving for ILambda_2_0, Initial residual = 9.6649204e-05, Final residual = 9.6649204e-05, No Iterations 0
GAMG:  Solving for ILambda_3_0, Initial residual = 9.9588094e-05, Final residual = 9.9588094e-05, No Iterations 0
GAMG:  Solving for ILambda_4_0, Initial residual = 9.4451091e-05, Final residual = 9.4451091e-05, No Iterations 0
GAMG:  Solving for ILambda_5_0, Initial residual = 9.7654788e-05, Final residual = 9.7654788e-05, No Iterations 0
GAMG:  Solving for ILambda_6_0, Initial residual = 9.7654788e-05, Final residual = 9.7654788e-05, No Iterations 0
GAMG:  Solving for ILambda_7_0, Initial residual = 9.4451091e-05, Final residual = 9.4451091e-05, No Iterations 0
GAMG:  Solving for ILambda_8_0, Initial residual = 9.9755531e-05, Final residual = 9.9755531e-05, No Iterations 0
GAMG:  Solving for ILambda_9_0, Initial residual = 9.0968702e-05, Final residual = 9.0968702e-05, No Iterations 0
GAMG:  Solving for ILambda_10_0, Initial residual = 9.0968702e-05, Final residual = 9.0968702e-05, No Iterations 0
GAMG:  Solving for ILambda_11_0, Initial residual = 9.9755531e-05, Final residual = 9.9755531e-05, No Iterations 0
GAMG:  Solving for ILambda_12_0, Initial residual = 9.9128458e-05, Final residual = 9.9128458e-05, No Iterations 0
GAMG:  Solving for ILambda_13_0, Initial residual = 9.4431839e-05, Final residual = 9.4431839e-05, No Iterations 0
GAMG:  Solving for ILambda_14_0, Initial residual = 9.4431839e-05, Final residual = 9.4431839e-05, No Iterations 0
GAMG:  Solving for ILambda_15_0, Initial residual = 9.9128458e-05, Final residual = 9.9128458e-05, No Iterations 0
Radiation solver iter: 8
GAMG:  Solving for ILambda_0_0, Initial residual = 9.9588094e-05, Final residual = 9.9588094e-05, No Iterations 0
GAMG:  Solving for ILambda_1_0, Initial residual = 9.6649204e-05, Final residual = 9.6649204e-05, No Iterations 0
GAMG:  Solving for ILambda_2_0, Initial residual = 9.6649204e-05, Final residual = 9.6649204e-05, No Iterations 0
GAMG:  Solving for ILambda_3_0, Initial residual = 9.9588094e-05, Final residual = 9.9588094e-05, No Iterations 0
GAMG:  Solving for ILambda_4_0, Initial residual = 9.4451091e-05, Final residual = 9.4451091e-05, No Iterations 0
GAMG:  Solving for ILambda_5_0, Initial residual = 9.7654788e-05, Final residual = 9.7654788e-05, No Iterations 0
GAMG:  Solving for ILambda_6_0, Initial residual = 9.7654788e-05, Final residual = 9.7654788e-05, No Iterations 0
GAMG:  Solving for ILambda_7_0, Initial residual = 9.4451091e-05, Final residual = 9.4451091e-05, No Iterations 0
GAMG:  Solving for ILambda_8_0, Initial residual = 9.9755531e-05, Final residual = 9.9755531e-05, No Iterations 0
GAMG:  Solving for ILambda_9_0, Initial residual = 9.0968702e-05, Final residual = 9.0968702e-05, No Iterations 0
GAMG:  Solving for ILambda_10_0, Initial residual = 9.0968702e-05, Final residual = 9.0968702e-05, No Iterations 0
GAMG:  Solving for ILambda_11_0, Initial residual = 9.9755531e-05, Final residual = 9.9755531e-05, No Iterations 0
GAMG:  Solving for ILambda_12_0, Initial residual = 9.9128458e-05, Final residual = 9.9128458e-05, No Iterations 0
GAMG:  Solving for ILambda_13_0, Initial residual = 9.4431839e-05, Final residual = 9.4431839e-05, No Iterations 0
GAMG:  Solving for ILambda_14_0, Initial residual = 9.4431839e-05, Final residual = 9.4431839e-05, No Iterations 0
GAMG:  Solving for ILambda_15_0, Initial residual = 9.9128458e-05, Final residual = 9.9128458e-05, No Iterations 0
Radiation solver iter: 9
GAMG:  Solving for ILambda_0_0, Initial residual = 9.9588094e-05, Final residual = 9.9588094e-05, No Iterations 0
GAMG:  Solving for ILambda_1_0, Initial residual = 9.6649204e-05, Final residual = 9.6649204e-05, No Iterations 0
GAMG:  Solving for ILambda_2_0, Initial residual = 9.6649204e-05, Final residual = 9.6649204e-05, No Iterations 0
GAMG:  Solving for ILambda_3_0, Initial residual = 9.9588094e-05, Final residual = 9.9588094e-05, No Iterations 0
GAMG:  Solving for ILambda_4_0, Initial residual = 9.4451091e-05, Final residual = 9.4451091e-05, No Iterations 0
GAMG:  Solving for ILambda_5_0, Initial residual = 9.7654788e-05, Final residual = 9.7654788e-05, No Iterations 0
GAMG:  Solving for ILambda_6_0, Initial residual = 9.7654788e-05, Final residual = 9.7654788e-05, No Iterations 0
GAMG:  Solving for ILambda_7_0, Initial residual = 9.4451091e-05, Final residual = 9.4451091e-05, No Iterations 0
GAMG:  Solving for ILambda_8_0, Initial residual = 9.9755531e-05, Final residual = 9.9755531e-05, No Iterations 0
GAMG:  Solving for ILambda_9_0, Initial residual = 9.0968702e-05, Final residual = 9.0968702e-05, No Iterations 0
GAMG:  Solving for ILambda_10_0, Initial residual = 9.0968702e-05, Final residual = 9.0968702e-05, No Iterations 0
GAMG:  Solving for ILambda_11_0, Initial residual = 9.9755531e-05, Final residual = 9.9755531e-05, No Iterations 0
GAMG:  Solving for ILambda_12_0, Initial residual = 9.9128458e-05, Final residual = 9.9128458e-05, No Iterations 0
GAMG:  Solving for ILambda_13_0, Initial residual = 9.4431839e-05, Final residual = 9.4431839e-05, No Iterations 0
GAMG:  Solving for ILambda_14_0, Initial residual = 9.4431839e-05, Final residual = 9.4431839e-05, No Iterations 0
GAMG:  Solving for ILambda_15_0, Initial residual = 9.9128458e-05, Final residual = 9.9128458e-05, No Iterations 0
GAMG:  Solving for p_rgh, Initial residual = 6.5235421e-06, Final residual = 6.8773258e-07, No Iterations 1
time step continuity errors : sum local = 6.7916855e-06, global = -3.5023413e-07, cumulative = 0.00018773146
ExecutionTime = 56.71 s  ClockTime = 57 s
Inflow      : 3.6608596e-05 [kg/s]
Outflow     : 3.6608303e-05 [kg/s]
EnergyInflow  : 10.816456 [W]
EnergyOutflow : 10.978448 [W]
EnergyBalance : 0.16199192 [W]
rho max/avg/min : 1.2016463 1.1382278 0.99116331
T   max/avg/min : 356.00817 311.28206 293.6862
P   max/avg/min : 101324.91 101316.16 101307.4
Prg max/avg/min : 101325 101324.5 101321.92
U   max/avg/min : 0.83847442 0.24445962 0
Prg max-min : 3.0798754
 
sngrad(rho) :-0.0001398375 -0.00019248875 -0.00025895077
 
Iteration Number = 841

DILUPBiCG:  Solving for Ux, Initial residual = 0.00026721558, Final residual = 2.0886846e-07, No Iterations 2
DILUPBiCG:  Solving for Uy, Initial residual = 0.013762368, Final residual = 5.2894536e-06, No Iterations 2
DILUPBiCG:  Solving for Uz, Initial residual = 4.6876113e-06, Final residual = 1.4471263e-09, No Iterations 2
DILUPBiCG:  Solving for h, Initial residual = 1.052691e-06, Final residual = 3.6189416e-09, No Iterations 4
GAMG:  Solving for p_rgh, Initial residual = 4.2891789e-06, Final residual = 1.5386498e-07, No Iterations 1
time step continuity errors : sum local = 1.5179003e-06, global = -4.5795505e-07, cumulative = 0.00018727351
ExecutionTime = 56.74 s  ClockTime = 57 s
Inflow      : 3.6609021e-05 [kg/s]
Outflow     : 3.6608639e-05 [kg/s]
EnergyInflow  : 10.816582 [W]
EnergyOutflow : 10.978547 [W]
EnergyBalance : 0.16196471 [W]
rho max/avg/min : 1.2016463 1.1382279 0.99116363
T   max/avg/min : 356.00806 311.28202 293.6862
P   max/avg/min : 101324.91 101316.16 101307.4
Prg max/avg/min : 101325 101324.5 101321.92
U   max/avg/min : 0.83848072 0.2444615 0
Prg max-min : 3.0798626
 
sngrad(rho) :-0.00011401779 -0.00017245488 -0.00024625816
 
Iteration Number = 842

DILUPBiCG:  Solving for Ux, Initial residual = 0.00016944845, Final residual = 2.1308495e-08, No Iterations 2
DILUPBiCG:  Solving for Uy, Initial residual = 0.014099386, Final residual = 2.3008835e-07, No Iterations 3
DILUPBiCG:  Solving for Uz, Initial residual = 4.6293084e-06, Final residual = 1.3882209e-09, No Iterations 2
DILUPBiCG:  Solving for h, Initial residual = 9.7106655e-07, Final residual = 2.3797457e-09, No Iterations 4
GAMG:  Solving for p_rgh, Initial residual = 1.7354563e-06, Final residual = 3.3836527e-07, No Iterations 1
time step continuity errors : sum local = 3.3449715e-06, global = -4.4342433e-07, cumulative = 0.00018683008
ExecutionTime = 56.76 s  ClockTime = 57 s
Inflow      : 3.6609432e-05 [kg/s]
Outflow     : 3.6609063e-05 [kg/s]
EnergyInflow  : 10.816703 [W]
EnergyOutflow : 10.978672 [W]
EnergyBalance : 0.16196896 [W]
rho max/avg/min : 1.2016463 1.138228 0.99116415
T   max/avg/min : 356.00787 311.28199 293.6862
P   max/avg/min : 101324.91 101316.16 101307.4
Prg max/avg/min : 101325 101324.5 101321.92
U   max/avg/min : 0.83848689 0.24446336 0
Prg max-min : 3.0798579
 
sngrad(rho) :-0.00011432277 -0.00017102329 -0.00024434163
 
Iteration Number = 843

DILUPBiCG:  Solving for Ux, Initial residual = 9.037112e-05, Final residual = 4.8946793e-08, No Iterations 2
DILUPBiCG:  Solving for Uy, Initial residual = 0.01352047, Final residual = 5.4904097e-06, No Iterations 2
DILUPBiCG:  Solving for Uz, Initial residual = 4.5249358e-06, Final residual = 1.2758177e-09, No Iterations 2
DILUPBiCG:  Solving for h, Initial residual = 9.629954e-07, Final residual = 4.6615471e-09, No Iterations 4
GAMG:  Solving for p_rgh, Initial residual = 2.8608898e-06, Final residual = 2.7108559e-07, No Iterations 1
time step continuity errors : sum local = 2.6790335e-06, global = -3.6254054e-07, cumulative = 0.00018646754
ExecutionTime = 56.79 s  ClockTime = 57 s
Inflow      : 3.6609821e-05 [kg/s]
Outflow     : 3.6609519e-05 [kg/s]
EnergyInflow  : 10.816818 [W]
EnergyOutflow : 10.978808 [W]
EnergyBalance : 0.16198979 [W]
rho max/avg/min : 1.2016463 1.1382281 0.99116474
T   max/avg/min : 356.00766 311.28195 293.6862
P   max/avg/min : 101324.91 101316.16 101307.4
Prg max/avg/min : 101325 101324.5 101321.92
U   max/avg/min : 0.83849299 0.24446521 0
Prg max-min : 3.0798473
 
sngrad(rho) :-0.00010445321 -0.00016752477 -0.00023966911
 
Iteration Number = 844

DILUPBiCG:  Solving for Ux, Initial residual = 5.8166569e-05, Final residual = 9.6244123e-09, No Iterations 2
DILUPBiCG:  Solving for Uy, Initial residual = 0.013621515, Final residual = 5.195544e-06, No Iterations 2
DILUPBiCG:  Solving for Uz, Initial residual = 4.4537709e-06, Final residual = 1.2412309e-09, No Iterations 2
DILUPBiCG:  Solving for h, Initial residual = 9.3828794e-07, Final residual = 4.167219e-09, No Iterations 4
GAMG:  Solving for p_rgh, Initial residual = 1.4080202e-06, Final residual = 1.5071663e-07, No Iterations 1
time step continuity errors : sum local = 1.4935183e-06, global = -2.760156e-07, cumulative = 0.00018619153
ExecutionTime = 56.82 s  ClockTime = 57 s
Inflow      : 3.6610181e-05 [kg/s]
Outflow     : 3.6609951e-05 [kg/s]
EnergyInflow  : 10.816925 [W]
EnergyOutflow : 10.978937 [W]
EnergyBalance : 0.16201228 [W]
rho max/avg/min : 1.2016463 1.1382283 0.99116537
T   max/avg/min : 356.00743 311.28191 293.6862
P   max/avg/min : 101324.91 101316.16 101307.4
Prg max/avg/min : 101325 101324.5 101321.92
U   max/avg/min : 0.83849904 0.24446704 0
Prg max-min : 3.079839
 
sngrad(rho) :-0.00011276356 -0.00016942319 -0.00023658352
 
Iteration Number = 845

DILUPBiCG:  Solving for Ux, Initial residual = 3.8242006e-05, Final residual = 1.4951457e-08, No Iterations 2
DILUPBiCG:  Solving for Uy, Initial residual = 0.013409091, Final residual = 7.0848138e-06, No Iterations 2
DILUPBiCG:  Solving for Uz, Initial residual = 4.3874194e-06, Final residual = 1.2295427e-09, No Iterations 2
DILUPBiCG:  Solving for h, Initial residual = 9.1795739e-07, Final residual = 4.8423515e-09, No Iterations 3
GAMG:  Solving for p_rgh, Initial residual = 1.517523e-06, Final residual = 7.4985744e-08, No Iterations 1
time step continuity errors : sum local = 7.3982773e-07, global = -1.7217018e-07, cumulative = 0.00018601936
ExecutionTime = 56.84 s  ClockTime = 57 s
Inflow      : 3.6610509e-05 [kg/s]
Outflow     : 3.6610366e-05 [kg/s]
EnergyInflow  : 10.817022 [W]
EnergyOutflow : 10.97906 [W]
EnergyBalance : 0.16203884 [W]
rho max/avg/min : 1.2016463 1.1382284 0.99116601
T   max/avg/min : 356.0072 311.28187 293.6862
P   max/avg/min : 101324.91 101316.16 101307.4
Prg max/avg/min : 101325 101324.5 101321.92
U   max/avg/min : 0.83850502 0.24446886 0
Prg max-min : 3.0798294
 
sngrad(rho) :-0.00012007209 -0.00017052248 -0.00023318929
 
Iteration Number = 846

DILUPBiCG:  Solving for Ux, Initial residual = 2.2230844e-05, Final residual = 4.7475622e-09, No Iterations 2
DILUPBiCG:  Solving for Uy, Initial residual = 0.013149061, Final residual = 1.1382725e-05, No Iterations 2
DILUPBiCG:  Solving for Uz, Initial residual = 4.3561797e-06, Final residual = 1.2045896e-09, No Iterations 2
DILUPBiCG:  Solving for h, Initial residual = 9.1354949e-07, Final residual = 6.4669895e-09, No Iterations 3
GAMG:  Solving for p_rgh, Initial residual = 9.0045142e-07, Final residual = 9.0045142e-07, No Iterations 0
time step continuity errors : sum local = 8.8931148e-06, global = 1.5984693e-07, cumulative = 0.0001861792
ExecutionTime = 56.87 s  ClockTime = 57 s
Inflow      : 3.6610641e-05 [kg/s]
Outflow     : 3.6610774e-05 [kg/s]
EnergyInflow  : 10.817061 [W]
EnergyOutflow : 10.979182 [W]
EnergyBalance : 0.16212144 [W]
rho max/avg/min : 1.2016463 1.1382285 0.99116667
T   max/avg/min : 356.00696 311.28183 293.6862
P   max/avg/min : 101324.91 101316.16 101307.4
Prg max/avg/min : 101325 101324.5 101321.92
U   max/avg/min : 0.83851111 0.24447066 0
Prg max-min : 3.0798294
 
sngrad(rho) :-0.0001288768 -0.00017290167 -0.00023095345
 

SIMPLE solution converged in 846 iterations

End

