/*---------------------------------------------------------------------------*\
| =========                 |                                                 |
| \\      /  F ield         | OpenFOAM: The Open Source CFD Toolbox           |
|  \\    /   O peration     | Version:  4.0                                   |
|   \\  /    A nd           | Web:      www.OpenFOAM.org                      |
|    \\/     M anipulation  |                                                 |
\*---------------------------------------------------------------------------*/
Build  : 4.0-665f1db4c1f1
Exec   : pupoBuoyantSimpleFoam
Date   : Sep 26 2016
Time   : 23:06:04
Host   : "FAB2000"
PID    : 12660
Case   : /home/pedro/Documents/ThesisProject/OpenFoam/validation1rod/P1-Model
nProcs : 1
sigFpe : Enabling floating point exception trapping (FOAM_SIGFPE).
fileModificationChecking : Monitoring run-time modified files using timeStampMaster
allowSystemOperations : Allowing user-supplied system call operations

// * * * * * * * * * * * * * * * * * * * * * * * * * * * * * * * * * * * * * //
Create time

Create mesh for time = 0


SIMPLE: convergence criteria
    field p_rgh	 tolerance 1e-06
    field Uz	 tolerance 1e-06
    field h	 tolerance 1e-06

Reading thermophysical properties

Selecting thermodynamics package 
{
    type            heRhoThermo;
    mixture         pureMixture;
    transport       sutherland;
    thermo          hConst;
    equationOfState perfectGas;
    specie          specie;
    energy          sensibleEnthalpy;
}


Reading g

Reading hRef
Calculating field g.h

Selecting turbulence model type laminar
No MRF models present

Selecting radiationModel P1
Selecting absorptionEmissionModel constantAbsorptionEmission
Selecting scatterModel none
 
rho max/avg/min : 1.2016452 1.2015414 1.2014377
T   max/avg/min : 293.7 293.7 293.7
P   max/avg/min : 101324.91 101316.16 101307.41
Prg max/avg/min : 101325 101325 101325
U   max/avg/min : 0 0 0
 
sngrad(rho) :-0.00013977519 -0.00013977519 -0.00013977519
 
No finite volume options present


Starting Iteration loop

Iteration Number = 1

DILUPBiCG:  Solving for Ux, Initial residual = 2.3034354e-10, Final residual = 2.3034354e-10, No Iterations 0
DILUPBiCG:  Solving for Uy, Initial residual = 4.8698736e-07, Final residual = 2.590422e-09, No Iterations 1
DILUPBiCG:  Solving for Uz, Initial residual = 1, Final residual = 0.0001017747, No Iterations 2
DILUPBiCG:  Solving for h, Initial residual = 1, Final residual = 0.00045974978, No Iterations 1
GAMG:  Solving for G, Initial residual = 1, Final residual = 0.0056111918, No Iterations 1000
GAMG:  Solving for p_rgh, Initial residual = 0.73311646, Final residual = 0.00064934862, No Iterations 2
time step continuity errors : sum local = 0.00010792865, global = -2.4261664e-05, cumulative = -2.4261664e-05
ExecutionTime = 0.86 s  ClockTime = 1 s
Inflow      : -1.2211161e-07 [kg/s]
Outflow     : -1.4234582e-07 [kg/s]
EnergyInflow  : -0.036079365 [W]
EnergyOutflow : -0.04205781 [W]
EnergyBalance : -0.0059784453 [W]
rho max/avg/min : 1.2016452 1.1980051 1.1399242
T   max/avg/min : 309.54886 294.59253 293.7
P   max/avg/min : 101324.91 101316.16 101307.41
Prg max/avg/min : 101325 101324.97 101324.1
U   max/avg/min : 4.6798741e-05 -4.5774936e-05 -0.00052620342
Prg max-min : 0.90147113
 
sngrad(rho) :8.2016552 0.47146484 -0.00013740654
 
Iteration Number = 2

DILUPBiCG:  Solving for Ux, Initial residual = 0.36283622, Final residual = 2.757683e-05, No Iterations 2
DILUPBiCG:  Solving for Uy, Initial residual = 5.4608373e-05, Final residual = 4.0516245e-09, No Iterations 2
DILUPBiCG:  Solving for Uz, Initial residual = 0.35617537, Final residual = 1.0884091e-05, No Iterations 2
DILUPBiCG:  Solving for h, Initial residual = 0.24936786, Final residual = 6.4329112e-05, No Iterations 1
GAMG:  Solving for p_rgh, Initial residual = 0.025628447, Final residual = 1.161693e-05, No Iterations 4
time step continuity errors : sum local = 2.8901972e-05, global = 6.8927608e-06, cumulative = -1.7368904e-05
ExecutionTime = 0.89 s  ClockTime = 1 s
Inflow      : -2.2909127e-07 [kg/s]
Outflow     : -2.2334271e-07 [kg/s]
EnergyInflow  : -0.06768781 [W]
EnergyOutflow : -0.065989328 [W]
EnergyBalance : 0.0016984817 [W]
rho max/avg/min : 1.2016452 1.1948076 1.1107412
T   max/avg/min : 317.68235 295.42566 293.7
P   max/avg/min : 101324.91 101316.16 101307.41
Prg max/avg/min : 101325 101324.95 101323.67
U   max/avg/min : 0.00014035846 -6.6152784e-05 -0.00054289385
Prg max-min : 1.3290464
 
sngrad(rho) :12.089902 0.89721293 -0.00013426111
 
Iteration Number = 3

DILUPBiCG:  Solving for Ux, Initial residual = 0.42850148, Final residual = 3.9295827e-05, No Iterations 2
DILUPBiCG:  Solving for Uy, Initial residual = 6.7120296e-05, Final residual = 6.5158623e-09, No Iterations 2
DILUPBiCG:  Solving for Uz, Initial residual = 0.15077298, Final residual = 2.6823141e-06, No Iterations 2
DILUPBiCG:  Solving for h, Initial residual = 0.16144016, Final residual = 4.8166218e-05, No Iterations 1
GAMG:  Solving for p_rgh, Initial residual = 0.012084505, Final residual = 8.7580093e-06, No Iterations 2
time step continuity errors : sum local = 3.8964812e-05, global = 4.9626225e-06, cumulative = -1.2406281e-05
ExecutionTime = 0.92 s  ClockTime = 1 s
Inflow      : -1.7956567e-07 [kg/s]
Outflow     : -1.7542685e-07 [kg/s]
EnergyInflow  : -0.053054869 [W]
EnergyOutflow : -0.051831779 [W]
EnergyBalance : 0.0012230901 [W]
rho max/avg/min : 1.2016452 1.1916522 1.0894417
T   max/avg/min : 323.89345 296.26352 293.70001
P   max/avg/min : 101324.91 101316.16 101307.41
Prg max/avg/min : 101325 101324.93 101323.36
U   max/avg/min : 0.00026586955 -2.5114721e-05 -0.00043851846
Prg max-min : 1.6413635
 
sngrad(rho) :2.9148372 0.4254764 -0.00013141629
 
Iteration Number = 4

DILUPBiCG:  Solving for Ux, Initial residual = 0.23963437, Final residual = 1.5808809e-05, No Iterations 2
DILUPBiCG:  Solving for Uy, Initial residual = 5.4832035e-05, Final residual = 4.6758986e-09, No Iterations 2
DILUPBiCG:  Solving for Uz, Initial residual = 0.22777855, Final residual = 3.0142948e-06, No Iterations 2
DILUPBiCG:  Solving for h, Initial residual = 0.11826334, Final residual = 4.5053328e-05, No Iterations 1
GAMG:  Solving for p_rgh, Initial residual = 0.007780343, Final residual = 3.4060799e-06, No Iterations 3
time step continuity errors : sum local = 2.170679e-05, global = -5.9342962e-06, cumulative = -1.8340577e-05
ExecutionTime = 0.95 s  ClockTime = 1 s
Inflow      : -1.3750704e-07 [kg/s]
Outflow     : -1.4245624e-07 [kg/s]
EnergyInflow  : -0.040628133 [W]
EnergyOutflow : -0.042089759 [W]
EnergyBalance : -0.0014616256 [W]
rho max/avg/min : 1.2016452 1.1885065 1.0720382
T   max/avg/min : 329.15184 297.11147 293.70002
P   max/avg/min : 101324.91 101316.16 101307.41
Prg max/avg/min : 101325 101324.9 101323.1
U   max/avg/min : 0.00043397335 3.3587769e-05 -0.00034635478
Prg max-min : 1.8960819
 
sngrad(rho) :2.4088597 0.42245215 -0.00012877975
 
Iteration Number = 5

DILUPBiCG:  Solving for Ux, Initial residual = 0.34933449, Final residual = 1.6651026e-05, No Iterations 2
DILUPBiCG:  Solving for Uy, Initial residual = 3.9840936e-05, Final residual = 2.8109281e-09, No Iterations 2
DILUPBiCG:  Solving for Uz, Initial residual = 0.18564287, Final residual = 7.840167e-07, No Iterations 2
DILUPBiCG:  Solving for h, Initial residual = 0.094068256, Final residual = 4.6415945e-05, No Iterations 1
GAMG:  Solving for p_rgh, Initial residual = 0.0058862968, Final residual = 1.8799811e-06, No Iterations 3
time step continuity errors : sum local = 1.5518653e-05, global = 3.4031092e-06, cumulative = -1.4937468e-05
ExecutionTime = 0.98 s  ClockTime = 1 s
Inflow      : -1.1835498e-07 [kg/s]
Outflow     : -1.1551679e-07 [kg/s]
EnergyInflow  : -0.034969424 [W]
EnergyOutflow : -0.034129281 [W]
EnergyBalance : 0.0008401424 [W]
rho max/avg/min : 1.2016451 1.1853621 1.0570614
T   max/avg/min : 333.81579 297.97016 293.70002
P   max/avg/min : 101324.91 101316.16 101307.41
Prg max/avg/min : 101325 101324.88 101322.88
U   max/avg/min : 0.00063350233 0.00010446367 -0.0002887763
Prg max-min : 2.1153915
 
sngrad(rho) :2.1007552 0.42178295 -0.00012787791
 
Iteration Number = 6

DILUPBiCG:  Solving for Ux, Initial residual = 0.27330231, Final residual = 1.1271562e-05, No Iterations 2
DILUPBiCG:  Solving for Uy, Initial residual = 4.006646e-05, Final residual = 3.073461e-09, No Iterations 2
DILUPBiCG:  Solving for Uz, Initial residual = 0.18003806, Final residual = 5.9513973e-07, No Iterations 2
DILUPBiCG:  Solving for h, Initial residual = 0.078512431, Final residual = 4.9660683e-05, No Iterations 1
GAMG:  Solving for p_rgh, Initial residual = 0.0048437985, Final residual = 4.751029e-06, No Iterations 3
time step continuity errors : sum local = 4.8322999e-05, global = 2.049386e-05, cumulative = 5.5563922e-06
ExecutionTime = 1.01 s  ClockTime = 1 s
Inflow      : -1.1267558e-07 [kg/s]
Outflow     : -9.558371e-08 [kg/s]
EnergyInflow  : -0.033291374 [W]
EnergyOutflow : -0.028238248 [W]
EnergyBalance : 0.0050531256 [W]
rho max/avg/min : 1.2016451 1.1822168 1.0437795
T   max/avg/min : 338.06287 298.83916 293.70002
P   max/avg/min : 101324.91 101316.16 101307.41
Prg max/avg/min : 101325 101324.86 101322.69
U   max/avg/min : 0.00087703377 0.00019936984 -0.00027388037
Prg max-min : 2.3098205
 
sngrad(rho) :1.8825532 0.42140464 -0.00012844375
 
Iteration Number = 7

DILUPBiCG:  Solving for Ux, Initial residual = 0.15328822, Final residual = 4.5650934e-06, No Iterations 2
DILUPBiCG:  Solving for Uy, Initial residual = 4.5127496e-05, Final residual = 3.323827e-09, No Iterations 2
DILUPBiCG:  Solving for Uz, Initial residual = 0.17351728, Final residual = 0.00016352176, No Iterations 1
DILUPBiCG:  Solving for h, Initial residual = 0.067634281, Final residual = 5.4841946e-05, No Iterations 1
GAMG:  Solving for p_rgh, Initial residual = 0.0042424212, Final residual = 2.6664479e-06, No Iterations 3
time step continuity errors : sum local = 3.2248996e-05, global = 1.1463445e-05, cumulative = 1.7019837e-05
ExecutionTime = 1.04 s  ClockTime = 1 s
Inflow      : -8.8693229e-08 [kg/s]
Outflow     : -7.9132723e-08 [kg/s]
EnergyInflow  : -0.026205496 [W]
EnergyOutflow : -0.023375042 [W]
EnergyBalance : 0.002830454 [W]
rho max/avg/min : 1.2016451 1.1790703 1.0317733
T   max/avg/min : 341.99647 299.7178 293.70002
P   max/avg/min : 101324.91 101316.16 101307.41
Prg max/avg/min : 101325 101324.83 101322.51
U   max/avg/min : 0.0011635311 0.00033044623 -0.00023918813
Prg max-min : 2.4856487
 
sngrad(rho) :1.7182778 0.42174361 -0.00012866964
 
Iteration Number = 8

DILUPBiCG:  Solving for Ux, Initial residual = 0.14888397, Final residual = 4.9718561e-06, No Iterations 2
DILUPBiCG:  Solving for Uy, Initial residual = 5.2389152e-05, Final residual = 2.7196454e-09, No Iterations 2
DILUPBiCG:  Solving for Uz, Initial residual = 0.17557312, Final residual = 7.1600601e-07, No Iterations 2
DILUPBiCG:  Solving for h, Initial residual = 0.059610673, Final residual = 1.3280115e-06, No Iterations 2
GAMG:  Solving for p_rgh, Initial residual = 0.0039158478, Final residual = 1.2991746e-06, No Iterations 4
time step continuity errors : sum local = 1.8216783e-05, global = 5.4533567e-06, cumulative = 2.2473194e-05
ExecutionTime = 1.07 s  ClockTime = 1 s
Inflow      : -7.1216112e-08 [kg/s]
Outflow     : -6.6668016e-08 [kg/s]
EnergyInflow  : -0.021041669 [W]
EnergyOutflow : -0.019688174 [W]
EnergyBalance : 0.0013534948 [W]
rho max/avg/min : 1.2016451 1.1759188 1.0207753
T   max/avg/min : 345.68189 300.60641 293.70002
P   max/avg/min : 101324.91 101316.16 101307.41
Prg max/avg/min : 101325 101324.81 101322.35
U   max/avg/min : 0.0015002719 0.00050023464 -0.00021248489
Prg max-min : 2.6465765
 
sngrad(rho) :1.5910012 0.42213828 -0.00012703814
 
Iteration Number = 9

DILUPBiCG:  Solving for Ux, Initial residual = 0.14763465, Final residual = 5.373271e-06, No Iterations 2
DILUPBiCG:  Solving for Uy, Initial residual = 6.8524707e-05, Final residual = 2.9739569e-09, No Iterations 2
DILUPBiCG:  Solving for Uz, Initial residual = 0.16530054, Final residual = 8.0142196e-05, No Iterations 1
DILUPBiCG:  Solving for h, Initial residual = 0.053423591, Final residual = 1.6033672e-06, No Iterations 2
GAMG:  Solving for p_rgh, Initial residual = 0.0037318125, Final residual = 1.0091162e-06, No Iterations 4
time step continuity errors : sum local = 1.6116833e-05, global = -1.39625e-06, cumulative = 2.1076944e-05
ExecutionTime = 1.1 s  ClockTime = 1 s
Inflow      : -5.5384944e-08 [kg/s]
Outflow     : -5.6549416e-08 [kg/s]
EnergyInflow  : -0.016364158 [W]
EnergyOutflow : -0.016692396 [W]
EnergyBalance : -0.0003282384 [W]
rho max/avg/min : 1.2016451 1.1727665 1.0105929
T   max/avg/min : 349.16616 301.5035 293.70003
P   max/avg/min : 101324.91 101316.16 101307.41
Prg max/avg/min : 101325 101324.79 101322.2
U   max/avg/min : 0.0019001062 0.00071695666 -0.00020548678
Prg max-min : 2.7956163
 
sngrad(rho) :1.4839395 0.42249057 -0.00012215889
 
Iteration Number = 10

DILUPBiCG:  Solving for Ux, Initial residual = 0.12776469, Final residual = 4.7368259e-06, No Iterations 2
DILUPBiCG:  Solving for Uy, Initial residual = 9.7494816e-05, Final residual = 2.7705546e-09, No Iterations 2
DILUPBiCG:  Solving for Uz, Initial residual = 0.16000747, Final residual = 8.4098396e-05, No Iterations 1
DILUPBiCG:  Solving for h, Initial residual = 0.048493844, Final residual = 2.1631824e-06, No Iterations 2
GAMG:  Solving for G, Initial residual = 0.68902221, Final residual = 0.13535556, No Iterations 1000
GAMG:  Solving for p_rgh, Initial residual = 0.0036512703, Final residual = 1.8883577e-06, No Iterations 4
time step continuity errors : sum local = 3.3845147e-05, global = 1.1121797e-05, cumulative = 3.2198741e-05
ExecutionTime = 1.9 s  ClockTime = 2 s
Inflow      : -5.811996e-08 [kg/s]
Outflow     : -4.8844388e-08 [kg/s]
EnergyInflow  : -0.017172251 [W]
EnergyOutflow : -0.014406757 [W]
EnergyBalance : 0.0027654941 [W]
rho max/avg/min : 1.201645 1.1696142 1.0010904
T   max/avg/min : 352.4824 302.40847 293.70005
P   max/avg/min : 101324.91 101316.16 101307.41
Prg max/avg/min : 101325 101324.76 101322.07
U   max/avg/min : 0.0023763291 0.00099124355 -0.00023365379
Prg max-min : 2.9346593
 
sngrad(rho) :1.3997385 0.42294605 -0.00011120477
 
Iteration Number = 11

DILUPBiCG:  Solving for Ux, Initial residual = 0.09393625, Final residual = 3.3704099e-06, No Iterations 2
DILUPBiCG:  Solving for Uy, Initial residual = 0.00013475897, Final residual = 2.3634542e-09, No Iterations 2
DILUPBiCG:  Solving for Uz, Initial residual = 0.15668294, Final residual = 0.00010988083, No Iterations 1
DILUPBiCG:  Solving for h, Initial residual = 0.058250883, Final residual = 3.8602522e-06, No Iterations 2
GAMG:  Solving for p_rgh, Initial residual = 0.0051709089, Final residual = 1.1167746e-06, No Iterations 4
time step continuity errors : sum local = 2.2200677e-05, global = 3.7064413e-06, cumulative = 3.5905182e-05
ExecutionTime = 1.93 s  ClockTime = 2 s
Inflow      : -4.5176381e-08 [kg/s]
Outflow     : -4.2085211e-08 [kg/s]
EnergyInflow  : -0.013347913 [W]
EnergyOutflow : -0.012396374 [W]
EnergyBalance : 0.00095153909 [W]
rho max/avg/min : 1.2016448 1.1673713 1.0073053
T   max/avg/min : 350.31027 303.01687 293.70009
P   max/avg/min : 101324.91 101316.16 101307.41
Prg max/avg/min : 101325 101324.75 101322.16
U   max/avg/min : 0.0029504972 0.0013332405 -0.00026901793
Prg max-min : 2.8435701
 
sngrad(rho) :1.1479818 0.30247697 -0.82874834
 
Iteration Number = 12

DILUPBiCG:  Solving for Ux, Initial residual = 0.091848868, Final residual = 3.4549373e-06, No Iterations 2
DILUPBiCG:  Solving for Uy, Initial residual = 0.00019538205, Final residual = 3.2390327e-09, No Iterations 2
DILUPBiCG:  Solving for Uz, Initial residual = 0.15334057, Final residual = 0.00013168295, No Iterations 1
DILUPBiCG:  Solving for h, Initial residual = 0.030743423, Final residual = 4.5541405e-06, No Iterations 2
GAMG:  Solving for p_rgh, Initial residual = 0.0043418446, Final residual = 2.8280392e-06, No Iterations 4
time step continuity errors : sum local = 6.024451e-05, global = 2.3740944e-05, cumulative = 5.9646127e-05
ExecutionTime = 1.95 s  ClockTime = 2 s
Inflow      : -5.7158842e-08 [kg/s]
Outflow     : -3.7358909e-08 [kg/s]
EnergyInflow  : -0.016888277 [W]
EnergyOutflow : -0.010981311 [W]
EnergyBalance : 0.0059069662 [W]
rho max/avg/min : 1.2016446 1.165114 1.0069416
T   max/avg/min : 350.44026 303.64075 293.70016
P   max/avg/min : 101324.91 101316.16 101307.41
Prg max/avg/min : 101325 101324.73 101322.15
U   max/avg/min : 0.0036341655 0.0017507461 -0.00038975279
Prg max-min : 2.8487308
 
sngrad(rho) :1.0015626 0.30590663 -5.307257e-05
 
Iteration Number = 13

DILUPBiCG:  Solving for Ux, Initial residual = 0.087025286, Final residual = 3.4802317e-06, No Iterations 2
DILUPBiCG:  Solving for Uy, Initial residual = 0.00027325899, Final residual = 4.0750376e-09, No Iterations 2
DILUPBiCG:  Solving for Uz, Initial residual = 0.15195889, Final residual = 1.527798e-06, No Iterations 2
DILUPBiCG:  Solving for h, Initial residual = 0.025581622, Final residual = 6.9429738e-06, No Iterations 2
GAMG:  Solving for p_rgh, Initial residual = 0.0042998918, Final residual = 1.8570498e-06, No Iterations 4
time step continuity errors : sum local = 4.2188033e-05, global = 7.8684073e-06, cumulative = 6.7514534e-05
ExecutionTime = 1.98 s  ClockTime = 2 s
Inflow      : -4.0027685e-08 [kg/s]
Outflow     : -3.3465438e-08 [kg/s]
EnergyInflow  : -0.011826668 [W]
EnergyOutflow : -0.0098046712 [W]
EnergyBalance : 0.0020219966 [W]
rho max/avg/min : 1.201644 1.16287 1.0048891
T   max/avg/min : 351.16049 304.26714 293.70027
P   max/avg/min : 101324.91 101316.16 101307.41
Prg max/avg/min : 101325 101324.72 101322.12
U   max/avg/min : 0.004457316 0.0022587652 -0.00051869598
Prg max-min : 2.8786264
 
sngrad(rho) :0.90137137 0.30622791 9.0893962e-06
 
Iteration Number = 14

DILUPBiCG:  Solving for Ux, Initial residual = 0.08256756, Final residual = 3.6932619e-06, No Iterations 2
DILUPBiCG:  Solving for Uy, Initial residual = 0.00035864322, Final residual = 8.3262315e-09, No Iterations 2
DILUPBiCG:  Solving for Uz, Initial residual = 0.15011588, Final residual = 1.5853542e-06, No Iterations 2
DILUPBiCG:  Solving for h, Initial residual = 0.024650362, Final residual = 8.4628451e-06, No Iterations 2
GAMG:  Solving for p_rgh, Initial residual = 0.0044425744, Final residual = 3.5696938e-06, No Iterations 4
time step continuity errors : sum local = 8.6173458e-05, global = 3.8370723e-05, cumulative = 0.00010588526
ExecutionTime = 2.02 s  ClockTime = 2 s
Inflow      : -6.3153395e-08 [kg/s]
Outflow     : -3.1152235e-08 [kg/s]
EnergyInflow  : -0.018659441 [W]
EnergyOutflow : -0.0090842284 [W]
EnergyBalance : 0.0095752126 [W]
rho max/avg/min : 1.2016432 1.1606403 1.002147
T   max/avg/min : 352.12686 304.89427 293.70045
P   max/avg/min : 101324.91 101316.16 101307.41
Prg max/avg/min : 101325 101324.7 101322.08
U   max/avg/min : 0.0054347971 0.002862317 -0.00079509743
Prg max-min : 2.9184965
 
sngrad(rho) :0.82763793 0.30692782 0.00010834708
 
Iteration Number = 15

DILUPBiCG:  Solving for Ux, Initial residual = 0.086421972, Final residual = 4.2732246e-06, No Iterations 2
DILUPBiCG:  Solving for Uy, Initial residual = 0.00052458615, Final residual = 1.2783795e-08, No Iterations 2
DILUPBiCG:  Solving for Uz, Initial residual = 0.1471307, Final residual = 2.3611975e-06, No Iterations 2
DILUPBiCG:  Solving for h, Initial residual = 0.023783176, Final residual = 1.2501899e-05, No Iterations 2
GAMG:  Solving for p_rgh, Initial residual = 0.0046533347, Final residual = 2.6021416e-06, No Iterations 4
time step continuity errors : sum local = 6.6408177e-05, global = 1.2141285e-05, cumulative = 0.00011802654
ExecutionTime = 2.05 s  ClockTime = 2 s
Inflow      : -3.9247283e-08 [kg/s]
Outflow     : -2.9121459e-08 [kg/s]
EnergyInflow  : -0.011596089 [W]
EnergyOutflow : -0.0084322531 [W]
EnergyBalance : 0.0031638356 [W]
rho max/avg/min : 1.2016417 1.158423 0.99906
T   max/avg/min : 353.22151 305.52199 293.70074
P   max/avg/min : 101324.91 101316.16 101307.41
Prg max/avg/min : 101325 101324.68 101322.04
U   max/avg/min : 0.0065977494 0.0035800801 -0.0010754935
Prg max-min : 2.9634275
 
sngrad(rho) :0.76942101 0.30907285 0.0002646426
 
Iteration Number = 16

DILUPBiCG:  Solving for Ux, Initial residual = 0.080604089, Final residual = 4.5689471e-06, No Iterations 2
DILUPBiCG:  Solving for Uy, Initial residual = 0.0006647555, Final residual = 1.7995534e-08, No Iterations 2
DILUPBiCG:  Solving for Uz, Initial residual = 0.14318236, Final residual = 2.1949708e-06, No Iterations 2
DILUPBiCG:  Solving for h, Initial residual = 0.022967175, Final residual = 1.5705698e-05, No Iterations 2
GAMG:  Solving for p_rgh, Initial residual = 0.0048813074, Final residual = 4.2372389e-06, No Iterations 4
time step continuity errors : sum local = 0.00011397633, global = 5.4985377e-05, cumulative = 0.00017301192
ExecutionTime = 2.08 s  ClockTime = 2 s
Inflow      : -7.3256287e-08 [kg/s]
Outflow     : -2.7398515e-08 [kg/s]
EnergyInflow  : -0.021644464 [W]
EnergyOutflow : -0.0078502349 [W]
EnergyBalance : 0.013794229 [W]
rho max/avg/min : 1.2016397 1.1562181 0.99578747
T   max/avg/min : 354.3902 306.14991 293.70118
P   max/avg/min : 101324.91 101316.16 101307.41
Prg max/avg/min : 101325 101324.67 101321.99
U   max/avg/min : 0.0079755729 0.0044111502 -0.0015549427
Prg max-min : 3.0109313
 
sngrad(rho) :0.72676323 0.31275556 0.00050311821
 
Iteration Number = 17

DILUPBiCG:  Solving for Ux, Initial residual = 0.0863502, Final residual = 5.7655917e-06, No Iterations 2
DILUPBiCG:  Solving for Uy, Initial residual = 0.00093205272, Final residual = 3.5223088e-08, No Iterations 2
DILUPBiCG:  Solving for Uz, Initial residual = 0.1380231, Final residual = 3.105098e-06, No Iterations 2
DILUPBiCG:  Solving for h, Initial residual = 0.022179871, Final residual = 2.1541756e-05, No Iterations 2
GAMG:  Solving for p_rgh, Initial residual = 0.0052503113, Final residual = 3.4415266e-06, No Iterations 4
time step continuity errors : sum local = 9.7114732e-05, global = 1.6832683e-05, cumulative = 0.0001898446
ExecutionTime = 2.1 s  ClockTime = 2 s
Inflow      : -3.8033404e-08 [kg/s]
Outflow     : -2.3994956e-08 [kg/s]
EnergyInflow  : -0.011237433 [W]
EnergyOutflow : -0.0067418441 [W]
EnergyBalance : 0.004495589 [W]
rho max/avg/min : 1.201636 1.1540244 0.99241601
T   max/avg/min : 355.60333 306.77809 293.70186
P   max/avg/min : 101324.91 101316.16 101307.41
Prg max/avg/min : 101325 101324.65 101321.94
U   max/avg/min : 0.0095981214 0.0053788471 -0.0020280199
Prg max-min : 3.0598909
 
sngrad(rho) :0.69175037 0.31754938 0.0008760533
 
Iteration Number = 18

DILUPBiCG:  Solving for Ux, Initial residual = 0.082665486, Final residual = 6.8165973e-06, No Iterations 2
DILUPBiCG:  Solving for Uy, Initial residual = 0.0011001298, Final residual = 4.9623049e-08, No Iterations 2
DILUPBiCG:  Solving for Uz, Initial residual = 0.13113105, Final residual = 2.6401319e-06, No Iterations 2
DILUPBiCG:  Solving for h, Initial residual = 0.021439272, Final residual = 6.1337533e-06, No Iterations 4
GAMG:  Solving for p_rgh, Initial residual = 0.0056744258, Final residual = 5.0265905e-06, No Iterations 4
time step continuity errors : sum local = 0.00014845928, global = 7.2380422e-05, cumulative = 0.00026222502
ExecutionTime = 2.14 s  ClockTime = 2 s
Inflow      : -7.6369458e-08 [kg/s]
Outflow     : -1.6004229e-08 [kg/s]
EnergyInflow  : -0.022564288 [W]
EnergyOutflow : -0.0042353624 [W]
EnergyBalance : 0.018328926 [W]
rho max/avg/min : 1.2016295 1.1518385 0.98899592
T   max/avg/min : 356.84359 307.40719 293.70322
P   max/avg/min : 101324.91 101316.16 101307.41
Prg max/avg/min : 101325 101324.63 101321.89
U   max/avg/min : 0.011502183 0.006472186 -0.0027430287
Prg max-min : 3.1096458
 
sngrad(rho) :0.66381403 0.32389229 0.0016171792
 
Iteration Number = 19

DILUPBiCG:  Solving for Ux, Initial residual = 0.087786588, Final residual = 8.7369436e-06, No Iterations 2
DILUPBiCG:  Solving for Uy, Initial residual = 0.0015167601, Final residual = 9.5486518e-08, No Iterations 2
DILUPBiCG:  Solving for Uz, Initial residual = 0.12405344, Final residual = 3.3836079e-06, No Iterations 2
DILUPBiCG:  Solving for h, Initial residual = 0.020712889, Final residual = 1.520578e-05, No Iterations 4
GAMG:  Solving for p_rgh, Initial residual = 0.0060283014, Final residual = 4.5809356e-06, No Iterations 4
time step continuity errors : sum local = 0.00014098279, global = 2.3291577e-05, cumulative = 0.0002855166
ExecutionTime = 2.17 s  ClockTime = 3 s
Inflow      : -1.8611971e-08 [kg/s]
Outflow     : 8.1319046e-10 [kg/s]
EnergyInflow  : -0.0054991339 [W]
EnergyOutflow : 0.00093968202 [W]
EnergyBalance : 0.0064388159 [W]
rho max/avg/min : 1.2016186 1.1496641 0.9855428
T   max/avg/min : 358.09971 308.03611 293.70528
P   max/avg/min : 101324.91 101316.16 101307.41
Prg max/avg/min : 101325 101324.62 101321.84
U   max/avg/min : 0.013722704 0.0077236102 -0.0034363457
Prg max-min : 3.1597317
 
sngrad(rho) :0.64195544 0.33163737 0.0027425613
 
Iteration Number = 20

DILUPBiCG:  Solving for Ux, Initial residual = 0.086953879, Final residual = 1.0891225e-05, No Iterations 2
DILUPBiCG:  Solving for Uy, Initial residual = 0.0018711762, Final residual = 1.8663152e-07, No Iterations 2
DILUPBiCG:  Solving for Uz, Initial residual = 0.115545, Final residual = 3.0273599e-06, No Iterations 2
DILUPBiCG:  Solving for h, Initial residual = 0.020017429, Final residual = 8.9999405e-06, No Iterations 4
GAMG:  Solving for G, Initial residual = 0.088364528, Final residual = 0.049861032, No Iterations 1000
GAMG:  Solving for p_rgh, Initial residual = 0.0068181522, Final residual = 6.2509304e-06, No Iterations 4
time step continuity errors : sum local = 0.00020013116, global = 8.6191555e-05, cumulative = 0.00037170816
ExecutionTime = 2.98 s  ClockTime = 3 s
Inflow      : -3.8888926e-08 [kg/s]
Outflow     : 3.299478e-08 [kg/s]
EnergyInflow  : -0.011490208 [W]
EnergyOutflow : 0.010739709 [W]
EnergyBalance : 0.022229917 [W]
rho max/avg/min : 1.2016112 1.1474995 0.98207186
T   max/avg/min : 359.36534 308.66522 293.70833
P   max/avg/min : 101324.91 101316.16 101307.41
Prg max/avg/min : 101325 101324.6 101321.79
U   max/avg/min : 0.016281915 0.0091047084 -0.0043825779
Prg max-min : 3.2096853
 
sngrad(rho) :0.62369943 0.33948612 0.0046582585
 
Iteration Number = 21

DILUPBiCG:  Solving for Ux, Initial residual = 0.090947136, Final residual = 1.2591135e-05, No Iterations 2
DILUPBiCG:  Solving for Uy, Initial residual = 0.0020183563, Final residual = 2.0261953e-07, No Iterations 2
DILUPBiCG:  Solving for Uz, Initial residual = 0.10790333, Final residual = 3.5472929e-06, No Iterations 2
DILUPBiCG:  Solving for h, Initial residual = 0.020294976, Final residual = 8.9201744e-06, No Iterations 5
GAMG:  Solving for p_rgh, Initial residual = 0.0078709476, Final residual = 5.898831e-06, No Iterations 4
time step continuity errors : sum local = 0.00019509809, global = 3.5043032e-05, cumulative = 0.00040675119
ExecutionTime = 3.01 s  ClockTime = 3 s
Inflow      : 5.6075634e-08 [kg/s]
Outflow     : 8.5301502e-08 [kg/s]
EnergyInflow  : 0.01656823 [W]
EnergyOutflow : 0.026604239 [W]
EnergyBalance : 0.010036009 [W]
rho max/avg/min : 1.2016121 1.1454999 0.98121819
T   max/avg/min : 359.67799 309.23996 293.70809
P   max/avg/min : 101324.91 101316.16 101307.41
Prg max/avg/min : 101325 101324.59 101321.78
U   max/avg/min : 0.019211864 0.010660428 -0.005455812
Prg max-min : 3.2214725
 
sngrad(rho) :0.60647513 0.32590883 0.0078429244
 
Iteration Number = 22

DILUPBiCG:  Solving for Ux, Initial residual = 0.087164205, Final residual = 1.3779424e-05, No Iterations 2
DILUPBiCG:  Solving for Uy, Initial residual = 0.0024742172, Final residual = 4.1118673e-07, No Iterations 2
DILUPBiCG:  Solving for Uz, Initial residual = 0.099289192, Final residual = 3.4869306e-06, No Iterations 2
DILUPBiCG:  Solving for h, Initial residual = 0.016654394, Final residual = 1.1664628e-06, No Iterations 5
GAMG:  Solving for p_rgh, Initial residual = 0.0084172173, Final residual = 6.6702063e-06, No Iterations 4
time step continuity errors : sum local = 0.00022830536, global = 9.3347771e-05, cumulative = 0.00050009896
ExecutionTime = 3.04 s  ClockTime = 3 s
Inflow      : 9.7126068e-08 [kg/s]
Outflow     : 1.7497805e-07 [kg/s]
EnergyInflow  : 0.028697082 [W]
EnergyOutflow : 0.053659979 [W]
EnergyBalance : 0.024962897 [W]
rho max/avg/min : 1.201617 1.1435148 0.97919214
T   max/avg/min : 360.42221 309.81435 293.7069
P   max/avg/min : 101324.91 101316.16 101307.41
Prg max/avg/min : 101325 101324.57 101321.75
U   max/avg/min : 0.022531611 0.012342619 -0.0066883212
Prg max-min : 3.2501124
 
sngrad(rho) :0.59070239 0.33270363 0.011945713
 
Iteration Number = 23

DILUPBiCG:  Solving for Ux, Initial residual = 0.088885062, Final residual = 1.4411802e-05, No Iterations 2
DILUPBiCG:  Solving for Uy, Initial residual = 0.0032891875, Final residual = 7.1028179e-07, No Iterations 2
DILUPBiCG:  Solving for Uz, Initial residual = 0.091875247, Final residual = 3.7603963e-06, No Iterations 2
DILUPBiCG:  Solving for h, Initial residual = 0.016150495, Final residual = 1.2395669e-06, No Iterations 5
GAMG:  Solving for p_rgh, Initial residual = 0.0096629797, Final residual = 4.9318278e-06, No Iterations 4
time step continuity errors : sum local = 0.00017443178, global = 3.4448477e-05, cumulative = 0.00053454744
ExecutionTime = 3.07 s  ClockTime = 3 s
Inflow      : 2.6698443e-07 [kg/s]
Outflow     : 2.9571444e-07 [kg/s]
EnergyInflow  : 0.078883808 [W]
EnergyOutflow : 0.090074434 [W]
EnergyBalance : 0.011190626 [W]
rho max/avg/min : 1.2016221 1.14155 0.97684629
T   max/avg/min : 361.28774 310.38599 293.70565
P   max/avg/min : 101324.91 101316.16 101307.41
Prg max/avg/min : 101325 101324.56 101321.72
U   max/avg/min : 0.026256843 0.014200455 -0.007971425
Prg max-min : 3.2832021
 
sngrad(rho) :0.57612902 0.33480696 0.018029452
 
Iteration Number = 24

DILUPBiCG:  Solving for Ux, Initial residual = 0.080412644, Final residual = 1.4520999e-05, No Iterations 2
DILUPBiCG:  Solving for Uy, Initial residual = 0.003667712, Final residual = 6.6200298e-07, No Iterations 2
DILUPBiCG:  Solving for Uz, Initial residual = 0.084222566, Final residual = 4.0834443e-06, No Iterations 2
DILUPBiCG:  Solving for h, Initial residual = 0.015657064, Final residual = 2.2517009e-06, No Iterations 5
GAMG:  Solving for p_rgh, Initial residual = 0.0097942909, Final residual = 6.2628539e-06, No Iterations 4
time step continuity errors : sum local = 0.00023166322, global = 9.9104539e-05, cumulative = 0.00063365198
ExecutionTime = 3.1 s  ClockTime = 3 s
Inflow      : 3.859619e-07 [kg/s]
Outflow     : 4.6861503e-07 [kg/s]
EnergyInflow  : 0.11403715 [W]
EnergyOutflow : 0.14210929 [W]
EnergyBalance : 0.028072137 [W]
rho max/avg/min : 1.201627 1.1396088 0.97436155
T   max/avg/min : 362.20907 310.95379 293.70447
P   max/avg/min : 101324.91 101316.16 101307.42
Prg max/avg/min : 101325.01 101324.55 101321.69
U   max/avg/min : 0.030366614 0.016171816 -0.0091669478
Prg max-min : 3.3183072
 
sngrad(rho) :0.56261861 0.33732507 0.023858556
 
Iteration Number = 25

DILUPBiCG:  Solving for Ux, Initial residual = 0.080735766, Final residual = 1.5116298e-05, No Iterations 2
DILUPBiCG:  Solving for Uy, Initial residual = 0.0038631062, Final residual = 1.7663946e-06, No Iterations 2
DILUPBiCG:  Solving for Uz, Initial residual = 0.077859227, Final residual = 4.0633319e-06, No Iterations 2
DILUPBiCG:  Solving for h, Initial residual = 0.015162384, Final residual = 1.3579871e-05, No Iterations 4
GAMG:  Solving for p_rgh, Initial residual = 0.0095806163, Final residual = 3.6225299e-06, No Iterations 4
time step continuity errors : sum local = 0.00013900565, global = 1.4855677e-05, cumulative = 0.00064850765
ExecutionTime = 3.13 s  ClockTime = 3 s
Inflow      : 6.8451311e-07 [kg/s]
Outflow     : 6.9690274e-07 [kg/s]
EnergyInflow  : 0.20224775 [W]
EnergyOutflow : 0.21072742 [W]
EnergyBalance : 0.008479667 [W]
rho max/avg/min : 1.2016301 1.137693 0.97180498
T   max/avg/min : 363.16195 311.51709 293.70371
P   max/avg/min : 101324.91 101316.16 101307.42
Prg max/avg/min : 101325 101324.53 101321.65
U   max/avg/min : 0.034869375 0.018317088 -0.01034409
Prg max-min : 3.3545725
 
sngrad(rho) :0.5511356 0.33919942 0.029277266
 
Iteration Number = 26

DILUPBiCG:  Solving for Ux, Initial residual = 0.071554236, Final residual = 1.5071056e-05, No Iterations 2
DILUPBiCG:  Solving for Uy, Initial residual = 0.004535343, Final residual = 1.0601978e-06, No Iterations 2
DILUPBiCG:  Solving for Uz, Initial residual = 0.071704854, Final residual = 4.5337502e-06, No Iterations 2
DILUPBiCG:  Solving for h, Initial residual = 0.014691534, Final residual = 1.1493087e-05, No Iterations 4
GAMG:  Solving for p_rgh, Initial residual = 0.0098898854, Final residual = 4.7262966e-06, No Iterations 4
time step continuity errors : sum local = 0.00018867134, global = 7.6601686e-05, cumulative = 0.00072510934
ExecutionTime = 3.17 s  ClockTime = 4 s
Inflow      : 8.8329721e-07 [kg/s]
Outflow     : 9.4718297e-07 [kg/s]
EnergyInflow  : 0.26098094 [W]
EnergyOutflow : 0.28611379 [W]
EnergyBalance : 0.025132855 [W]
rho max/avg/min : 1.2016319 1.1358034 0.9692132
T   max/avg/min : 364.13308 312.07563 293.70325
P   max/avg/min : 101324.91 101316.17 101307.42
Prg max/avg/min : 101325.01 101324.52 101321.62
U   max/avg/min : 0.039759731 0.020545485 -0.011446424
Prg max-min : 3.3910058
 
sngrad(rho) :0.53988053 0.33379129 0.038321012
 
Iteration Number = 27

DILUPBiCG:  Solving for Ux, Initial residual = 0.069984541, Final residual = 1.5369673e-05, No Iterations 2
DILUPBiCG:  Solving for Uy, Initial residual = 0.0049497484, Final residual = 6.2253687e-08, No Iterations 3
DILUPBiCG:  Solving for Uz, Initial residual = 0.066342129, Final residual = 4.3111836e-06, No Iterations 2
DILUPBiCG:  Solving for h, Initial residual = 0.014214839, Final residual = 1.0885451e-05, No Iterations 4
GAMG:  Solving for p_rgh, Initial residual = 0.0090504361, Final residual = 4.6793729e-06, No Iterations 4
time step continuity errors : sum local = 0.00019377298, global = -5.4003576e-06, cumulative = 0.00071970898
ExecutionTime = 3.2 s  ClockTime = 4 s
Inflow      : 1.270985e-06 [kg/s]
Outflow     : 1.2664811e-06 [kg/s]
EnergyInflow  : 0.37552802 [W]
EnergyOutflow : 0.3821628 [W]
EnergyBalance : 0.0066347793 [W]
rho max/avg/min : 1.2016327 1.1339412 0.96660846
T   max/avg/min : 365.11432 312.62896 293.70308
P   max/avg/min : 101324.91 101316.16 101307.42
Prg max/avg/min : 101325.01 101324.5 101321.58
U   max/avg/min : 0.04502491 0.022929451 -0.013160639
Prg max-min : 3.4280526
 
sngrad(rho) :0.52971072 0.33280487 0.04497286
 
Iteration Number = 28

DILUPBiCG:  Solving for Ux, Initial residual = 0.058113557, Final residual = 1.4220243e-05, No Iterations 2
DILUPBiCG:  Solving for Uy, Initial residual = 0.0056718294, Final residual = 3.1108731e-08, No Iterations 3
DILUPBiCG:  Solving for Uz, Initial residual = 0.061456266, Final residual = 4.4324756e-06, No Iterations 2
DILUPBiCG:  Solving for h, Initial residual = 0.013759974, Final residual = 1.0731389e-05, No Iterations 4
GAMG:  Solving for p_rgh, Initial residual = 0.0084581792, Final residual = 4.980976e-06, No Iterations 4
time step continuity errors : sum local = 0.00020982401, global = 9.8738885e-05, cumulative = 0.00081844787
ExecutionTime = 3.23 s  ClockTime = 4 s
Inflow      : 1.5560114e-06 [kg/s]
Outflow     : 1.6383596e-06 [kg/s]
EnergyInflow  : 0.45974256 [W]
EnergyOutflow : 0.49403408 [W]
EnergyBalance : 0.034291516 [W]
rho max/avg/min : 1.2016339 1.1321092 0.96400654
T   max/avg/min : 366.09979 313.17631 293.70277
P   max/avg/min : 101324.91 101316.17 101307.42
Prg max/avg/min : 101325.01 101324.49 101321.54
U   max/avg/min : 0.050598429 0.025397203 -0.014830767
Prg max-min : 3.4652372
 
sngrad(rho) :0.57606911 0.3317849 0.051173456
 
Iteration Number = 29

DILUPBiCG:  Solving for Ux, Initial residual = 0.057855134, Final residual = 1.4223335e-05, No Iterations 2
DILUPBiCG:  Solving for Uy, Initial residual = 0.0066564026, Final residual = 4.1012731e-08, No Iterations 3
DILUPBiCG:  Solving for Uz, Initial residual = 0.056976862, Final residual = 4.2088663e-06, No Iterations 2
DILUPBiCG:  Solving for h, Initial residual = 0.013320178, Final residual = 1.1397126e-05, No Iterations 4
GAMG:  Solving for p_rgh, Initial residual = 0.0091068764, Final residual = 4.5905978e-06, No Iterations 4
time step continuity errors : sum local = 0.00019379733, global = -2.0145736e-05, cumulative = 0.00079830213
ExecutionTime = 3.27 s  ClockTime = 4 s
Inflow      : 2.0889362e-06 [kg/s]
Outflow     : 2.0721347e-06 [kg/s]
EnergyInflow  : 0.6172017 [W]
EnergyOutflow : 0.62457297 [W]
EnergyBalance : 0.0073712679 [W]
rho max/avg/min : 1.2016352 1.1303078 0.96141951
T   max/avg/min : 367.08491 313.71748 293.70246
P   max/avg/min : 101324.91 101316.17 101307.42
Prg max/avg/min : 101325.01 101324.48 101321.51
U   max/avg/min : 0.056524617 0.027990795 -0.016563923
Prg max-min : 3.5017041
 
sngrad(rho) :0.53936768 0.32169408 0.059339647
 
Iteration Number = 30

DILUPBiCG:  Solving for Ux, Initial residual = 0.04810642, Final residual = 1.3231637e-05, No Iterations 2
DILUPBiCG:  Solving for Uy, Initial residual = 0.0065635654, Final residual = 2.300113e-06, No Iterations 2
DILUPBiCG:  Solving for Uz, Initial residual = 0.053405035, Final residual = 4.0388959e-06, No Iterations 2
DILUPBiCG:  Solving for h, Initial residual = 0.012888113, Final residual = 2.6435405e-06, No Iterations 5
GAMG:  Solving for G, Initial residual = 0.10410582, Final residual = 0.045040749, No Iterations 1000
GAMG:  Solving for p_rgh, Initial residual = 0.0083110672, Final residual = 5.3630157e-06, No Iterations 4
time step continuity errors : sum local = 0.00022024727, global = 0.00011209204, cumulative = 0.00091039417
ExecutionTime = 4.07 s  ClockTime = 4 s
Inflow      : 2.4460408e-06 [kg/s]
Outflow     : 2.5395255e-06 [kg/s]
EnergyInflow  : 0.72271259 [W]
EnergyOutflow : 0.76538068 [W]
EnergyBalance : 0.042668091 [W]
rho max/avg/min : 1.2016374 1.1285382 0.95885744
T   max/avg/min : 368.06576 314.2521 293.70192
P   max/avg/min : 101324.91 101316.17 101307.43
Prg max/avg/min : 101325.01 101324.47 101321.47
U   max/avg/min : 0.062770954 0.030647934 -0.018188579
Prg max-min : 3.5387924
 
sngrad(rho) :0.60513516 0.31814216 0.046068703
 
Iteration Number = 31

DILUPBiCG:  Solving for Ux, Initial residual = 0.04785017, Final residual = 1.2778258e-05, No Iterations 2
DILUPBiCG:  Solving for Uy, Initial residual = 0.0071645683, Final residual = 6.7280042e-08, No Iterations 3
DILUPBiCG:  Solving for Uz, Initial residual = 0.049446649, Final residual = 3.8378398e-06, No Iterations 2
DILUPBiCG:  Solving for h, Initial residual = 0.013668487, Final residual = 2.8273819e-06, No Iterations 5
GAMG:  Solving for p_rgh, Initial residual = 0.0077394175, Final residual = 2.7384245e-06, No Iterations 4
time step continuity errors : sum local = 0.00011175906, global = -3.055488e-05, cumulative = 0.00087983929
ExecutionTime = 4.1 s  ClockTime = 4 s
Inflow      : 3.1093398e-06 [kg/s]
Outflow     : 3.083857e-06 [kg/s]
EnergyInflow  : 0.91869237 [W]
EnergyOutflow : 0.92928559 [W]
EnergyBalance : 0.010593216 [W]
rho max/avg/min : 1.2016441 1.126969 0.95926491
T   max/avg/min : 367.90941 314.71768 293.70028
P   max/avg/min : 101324.91 101316.17 101307.43
Prg max/avg/min : 101325.01 101324.45 101321.48
U   max/avg/min : 0.069301598 0.033414779 -0.019681169
Prg max-min : 3.5334036
 
sngrad(rho) :0.65620416 0.29237795 -0.042708263
 
Iteration Number = 32

DILUPBiCG:  Solving for Ux, Initial residual = 0.040936259, Final residual = 1.1524555e-05, No Iterations 2
DILUPBiCG:  Solving for Uy, Initial residual = 0.0071200867, Final residual = 1.6460714e-07, No Iterations 3
DILUPBiCG:  Solving for Uz, Initial residual = 0.047035539, Final residual = 3.5605334e-06, No Iterations 2
DILUPBiCG:  Solving for h, Initial residual = 0.010361207, Final residual = 2.6348086e-06, No Iterations 5
GAMG:  Solving for p_rgh, Initial residual = 0.007662522, Final residual = 5.3282782e-06, No Iterations 4
time step continuity errors : sum local = 0.00020981263, global = 0.00014370714, cumulative = 0.0010235464
ExecutionTime = 4.14 s  ClockTime = 4 s
Inflow      : 3.5860315e-06 [kg/s]
Outflow     : 3.7058832e-06 [kg/s]
EnergyInflow  : 1.0595368 [W]
EnergyOutflow : 1.1165564 [W]
EnergyBalance : 0.057019608 [W]
rho max/avg/min : 1.2016484 1.1254337 0.95837063
T   max/avg/min : 368.24951 315.17708 293.69924
P   max/avg/min : 101324.91 101316.17 101307.43
Prg max/avg/min : 101325.01 101324.44 101321.47
U   max/avg/min : 0.076074285 0.036238955 -0.021005829
Prg max-min : 3.546969
 
sngrad(rho) :0.70660578 0.2897045 0.043781519
 
Iteration Number = 33

DILUPBiCG:  Solving for Ux, Initial residual = 0.040081094, Final residual = 1.1090834e-05, No Iterations 2
DILUPBiCG:  Solving for Uy, Initial residual = 0.0082131861, Final residual = 2.7351964e-06, No Iterations 2
DILUPBiCG:  Solving for Uz, Initial residual = 0.043461928, Final residual = 3.3757256e-06, No Iterations 2
DILUPBiCG:  Solving for h, Initial residual = 0.0099498912, Final residual = 2.8393495e-06, No Iterations 5
GAMG:  Solving for p_rgh, Initial residual = 0.0079434418, Final residual = 3.8897855e-06, No Iterations 4
time step continuity errors : sum local = 0.000150736, global = -1.211515e-06, cumulative = 0.0010223349
ExecutionTime = 4.17 s  ClockTime = 5 s
Inflow      : 4.404617e-06 [kg/s]
Outflow     : 4.4036066e-06 [kg/s]
EnergyInflow  : 1.3013978 [W]
EnergyOutflow : 1.3266248 [W]
EnergyBalance : 0.025226925 [W]
rho max/avg/min : 1.2016477 1.1239389 0.95700678
T   max/avg/min : 368.7217 315.62744 293.6989
P   max/avg/min : 101324.91 101316.17 101307.43
Prg max/avg/min : 101325.01 101324.43 101321.45
U   max/avg/min : 0.083095402 0.039155437 -0.022199062
Prg max-min : 3.5658017
 
sngrad(rho) :0.75778238 0.28623188 0.040182675
 
Iteration Number = 34

DILUPBiCG:  Solving for Ux, Initial residual = 0.035929149, Final residual = 1.0696087e-05, No Iterations 2
DILUPBiCG:  Solving for Uy, Initial residual = 0.0090006861, Final residual = 1.9869163e-07, No Iterations 3
DILUPBiCG:  Solving for Uz, Initial residual = 0.042087998, Final residual = 3.2099417e-06, No Iterations 2
DILUPBiCG:  Solving for h, Initial residual = 0.0096686088, Final residual = 3.9260799e-06, No Iterations 5
GAMG:  Solving for p_rgh, Initial residual = 0.010590719, Final residual = 4.927506e-06, No Iterations 4
time step continuity errors : sum local = 0.00018376942, global = 0.00014776225, cumulative = 0.0011700972
ExecutionTime = 4.2 s  ClockTime = 5 s
Inflow      : 5.0549513e-06 [kg/s]
Outflow     : 5.178185e-06 [kg/s]
EnergyInflow  : 1.493547 [W]
EnergyOutflow : 1.5599726 [W]
EnergyBalance : 0.066425582 [W]
rho max/avg/min : 1.2016486 1.1224865 0.95546741
T   max/avg/min : 369.3086 316.068 293.69816
P   max/avg/min : 101324.91 101316.17 101307.43
Prg max/avg/min : 101325.01 101324.42 101321.43
U   max/avg/min : 0.090321949 0.0421122 -0.023193363
Prg max-min : 3.5857428
 
sngrad(rho) :0.63993463 0.27037593 0.037374948
 
Iteration Number = 35

DILUPBiCG:  Solving for Ux, Initial residual = 0.032684498, Final residual = 1.0081733e-05, No Iterations 2
DILUPBiCG:  Solving for Uy, Initial residual = 0.0095922896, Final residual = 4.5969629e-06, No Iterations 2
DILUPBiCG:  Solving for Uz, Initial residual = 0.038805718, Final residual = 2.9796799e-06, No Iterations 2
DILUPBiCG:  Solving for h, Initial residual = 0.0093894889, Final residual = 7.6860285e-06, No Iterations 5
GAMG:  Solving for p_rgh, Initial residual = 0.011437851, Final residual = 3.8331445e-06, No Iterations 4
time step continuity errors : sum local = 0.00014006696, global = 1.1133131e-05, cumulative = 0.0011812303
ExecutionTime = 4.23 s  ClockTime = 5 s
Inflow      : 6.0327452e-06 [kg/s]
Outflow     : 6.0420303e-06 [kg/s]
EnergyInflow  : 1.7824482 [W]
EnergyOutflow : 1.8201612 [W]
EnergyBalance : 0.037713006 [W]
rho max/avg/min : 1.2016486 1.1210773 0.95382439
T   max/avg/min : 369.94477 316.49837 293.69764
P   max/avg/min : 101324.91 101316.17 101307.43
Prg max/avg/min : 101325.01 101324.41 101321.4
U   max/avg/min : 0.09775421 0.045147433 -0.023957976
Prg max-min : 3.6088405
 
sngrad(rho) :0.69748734 0.26466578 0.020762843
 
Iteration Number = 36

DILUPBiCG:  Solving for Ux, Initial residual = 0.030845859, Final residual = 2.9591132e-07, No Iterations 3
DILUPBiCG:  Solving for Uy, Initial residual = 0.0098084393, Final residual = 4.2716092e-06, No Iterations 2
DILUPBiCG:  Solving for Uz, Initial residual = 0.038208665, Final residual = 3.0672745e-06, No Iterations 2
DILUPBiCG:  Solving for h, Initial residual = 0.009105431, Final residual = 2.8497891e-06, No Iterations 6
GAMG:  Solving for p_rgh, Initial residual = 0.012597908, Final residual = 4.9965742e-06, No Iterations 4
time step continuity errors : sum local = 0.00017558137, global = 0.00013022859, cumulative = 0.0013114589
ExecutionTime = 4.26 s  ClockTime = 5 s
Inflow      : 6.877557e-06 [kg/s]
Outflow     : 6.9861676e-06 [kg/s]
EnergyInflow  : 2.0320581 [W]
EnergyOutflow : 2.1045284 [W]
EnergyBalance : 0.072470327 [W]
rho max/avg/min : 1.2016485 1.1197118 0.95211237
T   max/avg/min : 370.60998 316.91842 293.69715
P   max/avg/min : 101324.91 101316.17 101307.44
Prg max/avg/min : 101325.01 101324.4 101321.38
U   max/avg/min : 0.10534859 0.048212458 -0.024536454
Prg max-min : 3.6331913
 
sngrad(rho) :0.73366551 0.25987459 0.018026
 
Iteration Number = 37

DILUPBiCG:  Solving for Ux, Initial residual = 0.027327193, Final residual = 1.4495657e-05, No Iterations 2
DILUPBiCG:  Solving for Uy, Initial residual = 0.0098753856, Final residual = 4.3425494e-06, No Iterations 2
DILUPBiCG:  Solving for Uz, Initial residual = 0.035550177, Final residual = 2.8280246e-06, No Iterations 2
DILUPBiCG:  Solving for h, Initial residual = 0.0088306394, Final residual = 2.4761959e-06, No Iterations 6
GAMG:  Solving for p_rgh, Initial residual = 0.013811429, Final residual = 6.096443e-06, No Iterations 4
time step continuity errors : sum local = 0.00020713229, global = 8.0342174e-06, cumulative = 0.0013194931
ExecutionTime = 4.3 s  ClockTime = 5 s
Inflow      : 8.0534539e-06 [kg/s]
Outflow     : 8.0601545e-06 [kg/s]
EnergyInflow  : 2.3794912 [W]
EnergyOutflow : 2.4277918 [W]
EnergyBalance : 0.048300559 [W]
rho max/avg/min : 1.2016477 1.1183905 0.95035348
T   max/avg/min : 371.2959 317.32785 293.69633
P   max/avg/min : 101324.91 101316.17 101307.44
Prg max/avg/min : 101325.01 101324.38 101321.35
U   max/avg/min : 0.1131037 0.051352261 -0.024922295
Prg max-min : 3.6578518
 
sngrad(rho) :0.76594807 0.25559732 0.016272748
 
Iteration Number = 38

DILUPBiCG:  Solving for Ux, Initial residual = 0.028233263, Final residual = 1.3322709e-05, No Iterations 2
DILUPBiCG:  Solving for Uy, Initial residual = 0.009989033, Final residual = 6.0755861e-06, No Iterations 2
DILUPBiCG:  Solving for Uz, Initial residual = 0.035630544, Final residual = 3.1452657e-06, No Iterations 2
DILUPBiCG:  Solving for h, Initial residual = 0.0085546759, Final residual = 2.6445815e-06, No Iterations 6
GAMG:  Solving for p_rgh, Initial residual = 0.01532279, Final residual = 5.3277333e-06, No Iterations 4
time step continuity errors : sum local = 0.00017178266, global = 0.00011734389, cumulative = 0.001436837
ExecutionTime = 4.33 s  ClockTime = 5 s
Inflow      : 9.1181939e-06 [kg/s]
Outflow     : 9.2160587e-06 [kg/s]
EnergyInflow  : 2.6940816 [W]
EnergyOutflow : 2.775773 [W]
EnergyBalance : 0.081691353 [W]
rho max/avg/min : 1.2016474 1.1171148 0.94856156
T   max/avg/min : 371.99731 317.72622 293.69588
P   max/avg/min : 101324.91 101316.17 101307.44
Prg max/avg/min : 101325.01 101324.37 101321.33
U   max/avg/min : 0.12097894 0.054515021 -0.025204137
Prg max-min : 3.682473
 
sngrad(rho) :0.8017114 0.25157005 0.010761211
 
Iteration Number = 39

DILUPBiCG:  Solving for Ux, Initial residual = 0.025437485, Final residual = 1.0767923e-05, No Iterations 2
DILUPBiCG:  Solving for Uy, Initial residual = 0.0099853233, Final residual = 3.5565035e-06, No Iterations 2
DILUPBiCG:  Solving for Uz, Initial residual = 0.03350092, Final residual = 2.9450833e-06, No Iterations 2
DILUPBiCG:  Solving for h, Initial residual = 0.0082956501, Final residual = 4.1496689e-06, No Iterations 6
GAMG:  Solving for p_rgh, Initial residual = 0.019202846, Final residual = 7.3977345e-06, No Iterations 4
time step continuity errors : sum local = 0.00022942644, global = -1.9626676e-05, cumulative = 0.0014172103
ExecutionTime = 4.35 s  ClockTime = 5 s
Inflow      : 1.0475458e-05 [kg/s]
Outflow     : 1.0459089e-05 [kg/s]
EnergyInflow  : 3.0951018 [W]
EnergyOutflow : 3.1501773 [W]
EnergyBalance : 0.055075542 [W]
rho max/avg/min : 1.201646 1.1158837 0.94674622
T   max/avg/min : 372.71061 318.11373 293.6952
P   max/avg/min : 101324.91 101316.17 101307.44
Prg max/avg/min : 101325.01 101324.36 101321.3
U   max/avg/min : 0.12896605 0.057720057 -0.025233298
Prg max-min : 3.7047119
 
sngrad(rho) :0.53900455 0.2348191 0.010783452
 
Iteration Number = 40

DILUPBiCG:  Solving for Ux, Initial residual = 0.026427475, Final residual = 1.3867703e-05, No Iterations 2
DILUPBiCG:  Solving for Uy, Initial residual = 0.010491433, Final residual = 3.8722438e-06, No Iterations 2
DILUPBiCG:  Solving for Uz, Initial residual = 0.03321304, Final residual = 3.3473544e-06, No Iterations 2
DILUPBiCG:  Solving for h, Initial residual = 0.0080304747, Final residual = 3.4802694e-06, No Iterations 6
GAMG:  Solving for G, Initial residual = 0.096465125, Final residual = 0.041572562, No Iterations 1000
GAMG:  Solving for p_rgh, Initial residual = 0.021129792, Final residual = 1.8510527e-05, No Iterations 3
time step continuity errors : sum local = 0.00055050399, global = 0.00018963641, cumulative = 0.0016068467
ExecutionTime = 5.16 s  ClockTime = 6 s
Inflow      : 1.1645609e-05 [kg/s]
Outflow     : 1.1803766e-05 [kg/s]
EnergyInflow  : 3.4408372 [W]
EnergyOutflow : 3.5551404 [W]
EnergyBalance : 0.11430321 [W]
rho max/avg/min : 1.2016456 1.1146995 0.94491518
T   max/avg/min : 373.43284 318.48968 293.69474
P   max/avg/min : 101324.91 101316.17 101307.44
Prg max/avg/min : 101325.01 101324.35 101321.28
U   max/avg/min : 0.13701517 0.060900856 -0.025123029
Prg max-min : 3.7299454
 
sngrad(rho) :0.5844853 0.22892449 -0.0078425715
 
Iteration Number = 41

DILUPBiCG:  Solving for Ux, Initial residual = 0.027269088, Final residual = 1.1453437e-05, No Iterations 2
DILUPBiCG:  Solving for Uy, Initial residual = 0.010418794, Final residual = 5.6696898e-06, No Iterations 2
DILUPBiCG:  Solving for Uz, Initial residual = 0.030774376, Final residual = 3.0651742e-06, No Iterations 2
DILUPBiCG:  Solving for h, Initial residual = 0.0083153761, Final residual = 3.2888038e-06, No Iterations 6
GAMG:  Solving for p_rgh, Initial residual = 0.019830219, Final residual = 8.1336438e-06, No Iterations 4
time step continuity errors : sum local = 0.00023534561, global = 1.2902417e-05, cumulative = 0.0016197491
ExecutionTime = 5.18 s  ClockTime = 6 s
Inflow      : 1.3220596e-05 [kg/s]
Outflow     : 1.3231357e-05 [kg/s]
EnergyInflow  : 3.9061864 [W]
EnergyOutflow : 3.9850427 [W]
EnergyBalance : 0.07885631 [W]
rho max/avg/min : 1.2016456 1.1136585 0.94492264
T   max/avg/min : 373.4299 318.8167 293.69452
P   max/avg/min : 101324.91 101316.17 101307.44
Prg max/avg/min : 101325 101324.34 101321.28
U   max/avg/min : 0.14518491 0.06420637 -0.024676849
Prg max-min : 3.7292123
 
sngrad(rho) :0.60612171 0.21025332 -0.0080679694
 
Iteration Number = 42

DILUPBiCG:  Solving for Ux, Initial residual = 0.033868553, Final residual = 1.225117e-05, No Iterations 2
DILUPBiCG:  Solving for Uy, Initial residual = 0.011034926, Final residual = 6.4068627e-06, No Iterations 2
DILUPBiCG:  Solving for Uz, Initial residual = 0.03273707, Final residual = 4.0602105e-06, No Iterations 2
DILUPBiCG:  Solving for h, Initial residual = 0.0065667281, Final residual = 3.3704283e-06, No Iterations 6
GAMG:  Solving for p_rgh, Initial residual = 0.021377482, Final residual = 5.3804378e-06, No Iterations 4
time step continuity errors : sum local = 0.00015181157, global = 4.1155199e-05, cumulative = 0.0016609043
ExecutionTime = 5.21 s  ClockTime = 6 s
Inflow      : 1.4828154e-05 [kg/s]
Outflow     : 1.4862478e-05 [kg/s]
EnergyInflow  : 4.381159 [W]
EnergyOutflow : 4.4757261 [W]
EnergyBalance : 0.094567114 [W]
rho max/avg/min : 1.2016456 1.1126667 0.94408809
T   max/avg/min : 373.75999 319.13208 293.69424
P   max/avg/min : 101324.91 101316.17 101307.44
Prg max/avg/min : 101325.01 101324.33 101321.27
U   max/avg/min : 0.15340742 0.06753115 -0.024011926
Prg max-min : 3.7403161
 
sngrad(rho) :0.61728097 0.20447571 -0.012116249
 
Iteration Number = 43

DILUPBiCG:  Solving for Ux, Initial residual = 0.025208149, Final residual = 1.1868595e-05, No Iterations 2
DILUPBiCG:  Solving for Uy, Initial residual = 0.01222547, Final residual = 4.955967e-06, No Iterations 2
DILUPBiCG:  Solving for Uz, Initial residual = 0.029983437, Final residual = 3.6833788e-06, No Iterations 2
DILUPBiCG:  Solving for h, Initial residual = 0.0063349155, Final residual = 5.9453834e-06, No Iterations 6
GAMG:  Solving for p_rgh, Initial residual = 0.024092304, Final residual = 1.2053037e-05, No Iterations 4
time step continuity errors : sum local = 0.00033266992, global = 1.6145168e-05, cumulative = 0.0016770495
ExecutionTime = 5.24 s  ClockTime = 6 s
Inflow      : 1.6511388e-05 [kg/s]
Outflow     : 1.6524853e-05 [kg/s]
EnergyInflow  : 4.878491 [W]
EnergyOutflow : 4.9759477 [W]
EnergyBalance : 0.097456678 [W]
rho max/avg/min : 1.2016456 1.111725 0.94300856
T   max/avg/min : 374.18787 319.43492 293.69409
P   max/avg/min : 101324.91 101316.16 101307.44
Prg max/avg/min : 101325 101324.32 101321.25
U   max/avg/min : 0.16167991 0.070863366 -0.023260473
Prg max-min : 3.7542325
 
sngrad(rho) :0.63900929 0.19931026 -0.019087188
 
Iteration Number = 44

DILUPBiCG:  Solving for Ux, Initial residual = 0.028077516, Final residual = 1.3851417e-05, No Iterations 2
DILUPBiCG:  Solving for Uy, Initial residual = 0.013522059, Final residual = 5.0535703e-06, No Iterations 2
DILUPBiCG:  Solving for Uz, Initial residual = 0.02976205, Final residual = 4.1006501e-06, No Iterations 2
DILUPBiCG:  Solving for h, Initial residual = 0.0061075283, Final residual = 3.4492369e-06, No Iterations 7
GAMG:  Solving for p_rgh, Initial residual = 0.025495034, Final residual = 1.8961012e-05, No Iterations 3
time step continuity errors : sum local = 0.00050847478, global = 5.7023415e-05, cumulative = 0.0017340729
ExecutionTime = 5.27 s  ClockTime = 6 s
Inflow      : 1.8188616e-05 [kg/s]
Outflow     : 1.8236174e-05 [kg/s]
EnergyInflow  : 5.3740485 [W]
EnergyOutflow : 5.4909127 [W]
EnergyBalance : 0.11686415 [W]
rho max/avg/min : 1.2016456 1.1108348 0.9418109
T   max/avg/min : 374.6637 319.72453 293.69407
P   max/avg/min : 101324.91 101316.16 101307.44
Prg max/avg/min : 101325 101324.32 101321.23
U   max/avg/min : 0.16999644 0.074175963 -0.022412964
Prg max-min : 3.7694444
 
sngrad(rho) :0.65929465 0.19333249 -0.026185886
 
Iteration Number = 45

DILUPBiCG:  Solving for Ux, Initial residual = 0.022987416, Final residual = 1.4145069e-05, No Iterations 2
DILUPBiCG:  Solving for Uy, Initial residual = 0.013875168, Final residual = 7.0643291e-06, No Iterations 2
DILUPBiCG:  Solving for Uz, Initial residual = 0.027695017, Final residual = 3.8226255e-06, No Iterations 2
DILUPBiCG:  Solving for h, Initial residual = 0.0059028047, Final residual = 3.6590048e-06, No Iterations 7
GAMG:  Solving for p_rgh, Initial residual = 0.029831124, Final residual = 1.8814194e-05, No Iterations 3
time step continuity errors : sum local = 0.00048546796, global = 0.00025566549, cumulative = 0.0019897384
ExecutionTime = 5.3 s  ClockTime = 6 s
Inflow      : 1.979404e-05 [kg/s]
Outflow     : 2.0007265e-05 [kg/s]
EnergyInflow  : 5.8483906 [W]
EnergyOutflow : 6.0239433 [W]
EnergyBalance : 0.1755527 [W]
rho max/avg/min : 1.2016456 1.1099906 0.94054039
T   max/avg/min : 375.1698 320.00234 293.69394
P   max/avg/min : 101324.91 101316.16 101307.43
Prg max/avg/min : 101325 101324.31 101321.21
U   max/avg/min : 0.17839316 0.077543893 -0.021137837
Prg max-min : 3.7926128
 
sngrad(rho) :0.3209834 0.17713333 -0.02551816
 
Iteration Number = 46

DILUPBiCG:  Solving for Ux, Initial residual = 0.028990038, Final residual = 3.5366974e-07, No Iterations 3
DILUPBiCG:  Solving for Uy, Initial residual = 0.014926857, Final residual = 6.0125189e-06, No Iterations 2
DILUPBiCG:  Solving for Uz, Initial residual = 0.027866137, Final residual = 4.2833027e-06, No Iterations 2
DILUPBiCG:  Solving for h, Initial residual = 0.0057028341, Final residual = 3.7603776e-06, No Iterations 7
GAMG:  Solving for p_rgh, Initial residual = 0.035104114, Final residual = 2.2978374e-05, No Iterations 3
time step continuity errors : sum local = 0.0005743717, global = 0.00010091979, cumulative = 0.0020906582
ExecutionTime = 5.34 s  ClockTime = 6 s
Inflow      : 2.1753344e-05 [kg/s]
Outflow     : 2.1837511e-05 [kg/s]
EnergyInflow  : 6.427291 [W]
EnergyOutflow : 6.5745321 [W]
EnergyBalance : 0.14724108 [W]
rho max/avg/min : 1.2016457 1.1091959 0.93922176
T   max/avg/min : 375.69651 320.26732 293.6939
P   max/avg/min : 101324.91 101316.16 101307.43
Prg max/avg/min : 101325 101324.3 101321.19
U   max/avg/min : 0.18683305 0.080930795 -0.019530496
Prg max-min : 3.8139977
 
sngrad(rho) :0.31046464 0.16845298 -0.04307936
 
Iteration Number = 47

DILUPBiCG:  Solving for Ux, Initial residual = 0.02109545, Final residual = 3.4257433e-07, No Iterations 3
DILUPBiCG:  Solving for Uy, Initial residual = 0.0153719, Final residual = 1.2207422e-05, No Iterations 2
DILUPBiCG:  Solving for Uz, Initial residual = 0.026514895, Final residual = 4.1756659e-06, No Iterations 2
DILUPBiCG:  Solving for h, Initial residual = 0.0054923606, Final residual = 4.9085282e-06, No Iterations 6
GAMG:  Solving for p_rgh, Initial residual = 0.029277076, Final residual = 1.3933463e-05, No Iterations 3
time step continuity errors : sum local = 0.00033200902, global = 0.00012066919, cumulative = 0.0022113274
ExecutionTime = 5.37 s  ClockTime = 6 s
Inflow      : 2.3581151e-05 [kg/s]
Outflow     : 2.3681789e-05 [kg/s]
EnergyInflow  : 6.9673388 [W]
EnergyOutflow : 7.1290237 [W]
EnergyBalance : 0.16168496 [W]
rho max/avg/min : 1.2016457 1.1084457 0.93787051
T   max/avg/min : 376.23779 320.52068 293.69372
P   max/avg/min : 101324.91 101316.16 101307.42
Prg max/avg/min : 101325 101324.29 101321.16
U   max/avg/min : 0.19536015 0.084323199 -0.017726279
Prg max-min : 3.8380092
 
sngrad(rho) :0.30081863 0.15987779 -0.049483981
 
Iteration Number = 48

DILUPBiCG:  Solving for Ux, Initial residual = 0.025737267, Final residual = 1.0755201e-05, No Iterations 2
DILUPBiCG:  Solving for Uy, Initial residual = 0.015524333, Final residual = 1.5316906e-07, No Iterations 3
DILUPBiCG:  Solving for Uz, Initial residual = 0.025699645, Final residual = 3.969408e-06, No Iterations 2
DILUPBiCG:  Solving for h, Initial residual = 0.0052883364, Final residual = 1.3833681e-06, No Iterations 8
GAMG:  Solving for p_rgh, Initial residual = 0.026349397, Final residual = 1.8593368e-05, No Iterations 3
time step continuity errors : sum local = 0.00041684162, global = 0.00013229171, cumulative = 0.0023436191
ExecutionTime = 5.4 s  ClockTime = 6 s
Inflow      : 2.5410424e-05 [kg/s]
Outflow     : 2.5520755e-05 [kg/s]
EnergyInflow  : 7.5078198 [W]
EnergyOutflow : 7.6815975 [W]
EnergyBalance : 0.17377768 [W]
rho max/avg/min : 1.2016458 1.1077371 0.93649455
T   max/avg/min : 376.79057 320.76304 293.69358
P   max/avg/min : 101324.91 101316.15 101307.42
Prg max/avg/min : 101325 101324.28 101321.14
U   max/avg/min : 0.20398249 0.087718103 -0.015947745
Prg max-min : 3.8622595
 
sngrad(rho) :0.29125079 0.15191743 -0.050455664
 
Iteration Number = 49

DILUPBiCG:  Solving for Ux, Initial residual = 0.021058689, Final residual = 1.2706323e-05, No Iterations 2
DILUPBiCG:  Solving for Uy, Initial residual = 0.016082125, Final residual = 6.89369e-06, No Iterations 2
DILUPBiCG:  Solving for Uz, Initial residual = 0.024837294, Final residual = 3.8215028e-06, No Iterations 2
DILUPBiCG:  Solving for h, Initial residual = 0.0050896781, Final residual = 1.2745802e-06, No Iterations 8
GAMG:  Solving for p_rgh, Initial residual = 0.024704835, Final residual = 2.1218471e-05, No Iterations 3
time step continuity errors : sum local = 0.00045402337, global = 0.00014920752, cumulative = 0.0024928266
ExecutionTime = 5.43 s  ClockTime = 6 s
Inflow      : 2.7342727e-05 [kg/s]
Outflow     : 2.7467166e-05 [kg/s]
EnergyInflow  : 8.0787423 [W]
EnergyOutflow : 8.265564 [W]
EnergyBalance : 0.18682167 [W]
rho max/avg/min : 1.2016459 1.1070669 0.93510108
T   max/avg/min : 377.35204 320.99522 293.69341
P   max/avg/min : 101324.91 101316.15 101307.41
Prg max/avg/min : 101325 101324.27 101321.11
U   max/avg/min : 0.21270497 0.091165119 -0.013933076
Prg max-min : 3.8895423
 
sngrad(rho) :0.28232757 0.14435663 -0.060104594
 
Iteration Number = 50

DILUPBiCG:  Solving for Ux, Initial residual = 0.024037818, Final residual = 1.0986319e-05, No Iterations 2
DILUPBiCG:  Solving for Uy, Initial residual = 0.016558926, Final residual = 7.6842235e-06, No Iterations 2
DILUPBiCG:  Solving for Uz, Initial residual = 0.024959547, Final residual = 3.8987692e-06, No Iterations 2
DILUPBiCG:  Solving for h, Initial residual = 0.0048934774, Final residual = 3.5599805e-06, No Iterations 7
GAMG:  Solving for G, Initial residual = 0.072678761, Final residual = 0.036262171, No Iterations 1000
GAMG:  Solving for p_rgh, Initial residual = 0.023812121, Final residual = 1.1026326e-05, No Iterations 3
time step continuity errors : sum local = 0.00022378973, global = -2.820752e-06, cumulative = 0.0024900059
ExecutionTime = 6.22 s  ClockTime = 7 s
Inflow      : 2.9310501e-05 [kg/s]
Outflow     : 2.9308148e-05 [kg/s]
EnergyInflow  : 8.660145 [W]
EnergyOutflow : 8.8177578 [W]
EnergyBalance : 0.1576128 [W]
rho max/avg/min : 1.201646 1.106432 0.93369505
T   max/avg/min : 377.92026 321.21794 293.69317
P   max/avg/min : 101324.91 101316.15 101307.41
Prg max/avg/min : 101325 101324.26 101321.09
U   max/avg/min : 0.22149881 0.094609771 -0.011384381
Prg max-min : 3.9138016
 
sngrad(rho) :0.27429196 0.13745738 -0.069839307
 
Iteration Number = 51

DILUPBiCG:  Solving for Ux, Initial residual = 0.022804165, Final residual = 1.6676677e-05, No Iterations 2
DILUPBiCG:  Solving for Uy, Initial residual = 0.016549031, Final residual = 7.0989982e-06, No Iterations 2
DILUPBiCG:  Solving for Uz, Initial residual = 0.023792569, Final residual = 3.6295544e-06, No Iterations 2
DILUPBiCG:  Solving for h, Initial residual = 0.005091864, Final residual = 2.6121435e-06, No Iterations 7
GAMG:  Solving for p_rgh, Initial residual = 0.020655977, Final residual = 1.511922e-05, No Iterations 3
time step continuity errors : sum local = 0.00029413782, global = -0.00016882848, cumulative = 0.0023211774
ExecutionTime = 6.25 s  ClockTime = 7 s
Inflow      : 3.1237844e-05 [kg/s]
Outflow     : 3.1097041e-05 [kg/s]
EnergyInflow  : 9.2296022 [W]
EnergyOutflow : 9.3539447 [W]
EnergyBalance : 0.12434258 [W]
rho max/avg/min : 1.2016461 1.1059111 0.93388028
T   max/avg/min : 377.84529 321.39972 293.69289
P   max/avg/min : 101324.91 101316.15 101307.4
Prg max/avg/min : 101325 101324.26 101321.08
U   max/avg/min : 0.23037459 0.098033628 -0.0096172492
Prg max-min : 3.9157123
 
sngrad(rho) :0.26641726 0.1184987 -0.079351596
 
Iteration Number = 52

DILUPBiCG:  Solving for Ux, Initial residual = 0.02494372, Final residual = 2.1548099e-05, No Iterations 2
DILUPBiCG:  Solving for Uy, Initial residual = 0.016012785, Final residual = 2.2207378e-07, No Iterations 3
DILUPBiCG:  Solving for Uz, Initial residual = 0.023024324, Final residual = 3.4170547e-06, No Iterations 2
DILUPBiCG:  Solving for h, Initial residual = 0.0039343743, Final residual = 9.3185259e-07, No Iterations 7
GAMG:  Solving for p_rgh, Initial residual = 0.01914228, Final residual = 1.2901912e-05, No Iterations 4
time step continuity errors : sum local = 0.00024107029, global = -6.8731875e-05, cumulative = 0.0022524455
ExecutionTime = 6.28 s  ClockTime = 7 s
Inflow      : 3.2852364e-05 [kg/s]
Outflow     : 3.2795042e-05 [kg/s]
EnergyInflow  : 9.7066317 [W]
EnergyOutflow : 9.862601 [W]
EnergyBalance : 0.15596931 [W]
rho max/avg/min : 1.2016464 1.105419 0.93334026
T   max/avg/min : 378.06389 321.57416 293.69259
P   max/avg/min : 101324.91 101316.15 101307.4
Prg max/avg/min : 101325 101324.25 101321.08
U   max/avg/min : 0.23929649 0.10135692 -0.007696835
Prg max-min : 3.9234797
 
sngrad(rho) :0.26411614 0.1120344 -0.087968826
 
Iteration Number = 53

DILUPBiCG:  Solving for Ux, Initial residual = 0.024226151, Final residual = 3.4425913e-07, No Iterations 3
DILUPBiCG:  Solving for Uy, Initial residual = 0.015925649, Final residual = 1.8759711e-06, No Iterations 3
DILUPBiCG:  Solving for Uz, Initial residual = 0.02074233, Final residual = 2.8799454e-06, No Iterations 2
DILUPBiCG:  Solving for h, Initial residual = 0.0037446109, Final residual = 4.5026788e-07, No Iterations 7
GAMG:  Solving for p_rgh, Initial residual = 0.025107387, Final residual = 1.4969382e-05, No Iterations 3
time step continuity errors : sum local = 0.00026905865, global = 6.565215e-05, cumulative = 0.0023180977
ExecutionTime = 6.31 s  ClockTime = 7 s
Inflow      : 3.4358165e-05 [kg/s]
Outflow     : 3.4412919e-05 [kg/s]
EnergyInflow  : 10.151539 [W]
EnergyOutflow : 10.346883 [W]
EnergyBalance : 0.19534406 [W]
rho max/avg/min : 1.2016466 1.1049549 0.93258997
T   max/avg/min : 378.36805 321.74083 293.69227
P   max/avg/min : 101324.91 101316.15 101307.4
Prg max/avg/min : 101325 101324.25 101321.06
U   max/avg/min : 0.24826671 0.10464863 -0.0046558111
Prg max-min : 3.9405371
 
sngrad(rho) :0.25034095 0.10180755 -0.095909545
 
Iteration Number = 54

DILUPBiCG:  Solving for Ux, Initial residual = 0.025931129, Final residual = 3.2980174e-07, No Iterations 3
DILUPBiCG:  Solving for Uy, Initial residual = 0.016128699, Final residual = 1.4463488e-05, No Iterations 2
DILUPBiCG:  Solving for Uz, Initial residual = 0.02073132, Final residual = 2.9594606e-06, No Iterations 2
DILUPBiCG:  Solving for h, Initial residual = 0.0035898039, Final residual = 3.2438903e-07, No Iterations 7
GAMG:  Solving for p_rgh, Initial residual = 0.020423787, Final residual = 1.4102848e-05, No Iterations 3
time step continuity errors : sum local = 0.0002448009, global = -0.00012823479, cumulative = 0.0021898629
ExecutionTime = 6.35 s  ClockTime = 7 s
Inflow      : 3.6004953e-05 [kg/s]
Outflow     : 3.5898006e-05 [kg/s]
EnergyInflow  : 10.638103 [W]
EnergyOutflow : 10.791169 [W]
EnergyBalance : 0.15306593 [W]
rho max/avg/min : 1.2016469 1.1045163 0.93173755
T   max/avg/min : 378.71418 321.9002 293.69188
P   max/avg/min : 101324.91 101316.15 101307.39
Prg max/avg/min : 101325 101324.24 101321.04
U   max/avg/min : 0.25726547 0.1078983 -0.001250632
Prg max-min : 3.9544512
 
sngrad(rho) :0.24204542 0.094113638 -0.10120907
 
Iteration Number = 55

DILUPBiCG:  Solving for Ux, Initial residual = 0.026764905, Final residual = 3.5648572e-07, No Iterations 3
DILUPBiCG:  Solving for Uy, Initial residual = 0.016038992, Final residual = 9.4652041e-06, No Iterations 2
DILUPBiCG:  Solving for Uz, Initial residual = 0.019327954, Final residual = 2.737197e-06, No Iterations 2
DILUPBiCG:  Solving for h, Initial residual = 0.0034339669, Final residual = 3.1030073e-07, No Iterations 7
GAMG:  Solving for p_rgh, Initial residual = 0.016373004, Final residual = 8.6478618e-06, No Iterations 3
time step continuity errors : sum local = 0.00014549, global = 1.0165748e-05, cumulative = 0.0022000286
ExecutionTime = 6.38 s  ClockTime = 7 s
Inflow      : 3.7147327e-05 [kg/s]
Outflow     : 3.7155805e-05 [kg/s]
EnergyInflow  : 10.975631 [W]
EnergyOutflow : 11.167318 [W]
EnergyBalance : 0.19168744 [W]
rho max/avg/min : 1.2016472 1.1041009 0.93082294
T   max/avg/min : 379.08629 322.05289 293.6915
P   max/avg/min : 101324.91 101316.15 101307.4
Prg max/avg/min : 101325 101324.24 101321.03
U   max/avg/min : 0.26627967 0.11098372 0
Prg max-min : 3.9640987
 
sngrad(rho) :0.23369532 0.085589402 -0.10676567
 
Iteration Number = 56

DILUPBiCG:  Solving for Ux, Initial residual = 0.025529129, Final residual = 3.7842192e-07, No Iterations 3
DILUPBiCG:  Solving for Uy, Initial residual = 0.015937036, Final residual = 6.091668e-06, No Iterations 2
DILUPBiCG:  Solving for Uz, Initial residual = 0.01666942, Final residual = 2.1802949e-06, No Iterations 2
DILUPBiCG:  Solving for h, Initial residual = 0.0032878058, Final residual = 9.7012608e-07, No Iterations 7
GAMG:  Solving for p_rgh, Initial residual = 0.011697946, Final residual = 9.6244342e-06, No Iterations 3
time step continuity errors : sum local = 0.00015833268, global = 3.0887252e-05, cumulative = 0.0022309159
ExecutionTime = 6.4 s  ClockTime = 7 s
Inflow      : 3.8172404e-05 [kg/s]
Outflow     : 3.8198164e-05 [kg/s]
EnergyInflow  : 11.278502 [W]
EnergyOutflow : 11.478831 [W]
EnergyBalance : 0.20032887 [W]
rho max/avg/min : 1.2016475 1.1037052 0.92986624
T   max/avg/min : 379.47634 322.19973 293.69108
P   max/avg/min : 101324.91 101316.15 101307.39
Prg max/avg/min : 101325 101324.24 101321.02
U   max/avg/min : 0.27531533 0.11397511 0
Prg max-min : 3.9812603
 
sngrad(rho) :0.22551618 0.078358035 -0.1102332
 
Iteration Number = 57

DILUPBiCG:  Solving for Ux, Initial residual = 0.024757651, Final residual = 5.029314e-07, No Iterations 3
DILUPBiCG:  Solving for Uy, Initial residual = 0.01613399, Final residual = 1.561647e-05, No Iterations 2
DILUPBiCG:  Solving for Uz, Initial residual = 0.016239868, Final residual = 2.2617801e-06, No Iterations 2
DILUPBiCG:  Solving for h, Initial residual = 0.0031449332, Final residual = 6.9317883e-07, No Iterations 6
GAMG:  Solving for p_rgh, Initial residual = 0.0094619728, Final residual = 7.1155453e-06, No Iterations 4
time step continuity errors : sum local = 0.00011587212, global = -1.985645e-05, cumulative = 0.0022110594
ExecutionTime = 6.43 s  ClockTime = 7 s
Inflow      : 3.9181084e-05 [kg/s]
Outflow     : 3.9164524e-05 [kg/s]
EnergyInflow  : 11.576529 [W]
EnergyOutflow : 11.767173 [W]
EnergyBalance : 0.19064318 [W]
rho max/avg/min : 1.201648 1.1033271 0.92887994
T   max/avg/min : 379.87926 322.34119 293.69066
P   max/avg/min : 101324.91 101316.15 101307.39
Prg max/avg/min : 101325 101324.23 101321
U   max/avg/min : 0.28439494 0.11690831 0
Prg max-min : 3.995692
 
sngrad(rho) :0.21747597 0.072976145 -0.11333816
 
Iteration Number = 58

DILUPBiCG:  Solving for Ux, Initial residual = 0.024121688, Final residual = 1.8831791e-05, No Iterations 2
DILUPBiCG:  Solving for Uy, Initial residual = 0.016454114, Final residual = 1.7216516e-07, No Iterations 3
DILUPBiCG:  Solving for Uz, Initial residual = 0.015124317, Final residual = 2.1059487e-06, No Iterations 2
DILUPBiCG:  Solving for h, Initial residual = 0.0030067368, Final residual = 5.1742305e-07, No Iterations 6
GAMG:  Solving for p_rgh, Initial residual = 0.0087638964, Final residual = 7.5241396e-06, No Iterations 4
time step continuity errors : sum local = 0.00012111426, global = -1.7289778e-05, cumulative = 0.0021937696
ExecutionTime = 6.47 s  ClockTime = 7 s
Inflow      : 4.0021663e-05 [kg/s]
Outflow     : 4.0007244e-05 [kg/s]
EnergyInflow  : 11.824889 [W]
EnergyOutflow : 12.018472 [W]
EnergyBalance : 0.19358358 [W]
rho max/avg/min : 1.2016482 1.1029653 0.92787203
T   max/avg/min : 380.29191 322.47763 293.69024
P   max/avg/min : 101324.91 101316.15 101307.39
Prg max/avg/min : 101325 101324.23 101320.99
U   max/avg/min : 0.29345277 0.1197424 0
Prg max-min : 4.009373
 
sngrad(rho) :0.20979721 0.069165543 -0.11513837
 
Iteration Number = 59

DILUPBiCG:  Solving for Ux, Initial residual = 0.02313328, Final residual = 1.6022564e-05, No Iterations 2
DILUPBiCG:  Solving for Uy, Initial residual = 0.016068859, Final residual = 5.9644691e-06, No Iterations 2
DILUPBiCG:  Solving for Uz, Initial residual = 0.013919342, Final residual = 1.9785697e-06, No Iterations 2
DILUPBiCG:  Solving for h, Initial residual = 0.0028770775, Final residual = 4.4376288e-07, No Iterations 6
GAMG:  Solving for p_rgh, Initial residual = 0.0083783162, Final residual = 8.1235388e-06, No Iterations 4
time step continuity errors : sum local = 0.00012955221, global = -1.5262395e-05, cumulative = 0.0021785072
ExecutionTime = 6.5 s  ClockTime = 7 s
Inflow      : 4.0689223e-05 [kg/s]
Outflow     : 4.0676494e-05 [kg/s]
EnergyInflow  : 12.022127 [W]
EnergyOutflow : 12.218231 [W]
EnergyBalance : 0.19610343 [W]
rho max/avg/min : 1.2016486 1.1026188 0.92684829
T   max/avg/min : 380.71196 322.60934 293.6898
P   max/avg/min : 101324.91 101316.15 101307.4
Prg max/avg/min : 101325 101324.23 101320.98
U   max/avg/min : 0.30250528 0.12246807 0
Prg max-min : 4.0226954
 
sngrad(rho) :0.20249019 0.066431897 -0.11708382
 
Iteration Number = 60

DILUPBiCG:  Solving for Ux, Initial residual = 0.022591015, Final residual = 1.3213211e-05, No Iterations 2
DILUPBiCG:  Solving for Uy, Initial residual = 0.016657032, Final residual = 7.7966839e-06, No Iterations 2
DILUPBiCG:  Solving for Uz, Initial residual = 0.012800098, Final residual = 1.8263329e-06, No Iterations 2
DILUPBiCG:  Solving for h, Initial residual = 0.0027588218, Final residual = 2.6878978e-06, No Iterations 5
GAMG:  Solving for G, Initial residual = 0.068043073, Final residual = 0.033386526, No Iterations 1000
GAMG:  Solving for p_rgh, Initial residual = 0.0082143094, Final residual = 5.3926341e-06, No Iterations 4
time step continuity errors : sum local = 8.5351235e-05, global = -1.1771368e-05, cumulative = 0.0021667359
ExecutionTime = 7.3 s  ClockTime = 8 s
Inflow      : 4.1229679e-05 [kg/s]
Outflow     : 4.1219862e-05 [kg/s]
EnergyInflow  : 12.181812 [W]
EnergyOutflow : 12.380731 [W]
EnergyBalance : 0.19891916 [W]
rho max/avg/min : 1.2016492 1.1022871 0.92581278
T   max/avg/min : 381.13778 322.73637 293.68939
P   max/avg/min : 101324.91 101316.15 101307.4
Prg max/avg/min : 101325 101324.23 101320.96
U   max/avg/min : 0.31158738 0.125092 0
Prg max-min : 4.0364708
 
sngrad(rho) :0.19533792 0.064253211 -0.11787113
 
Iteration Number = 61

DILUPBiCG:  Solving for Ux, Initial residual = 0.021805148, Final residual = 1.03747e-05, No Iterations 2
DILUPBiCG:  Solving for Uy, Initial residual = 0.017217358, Final residual = 9.0410274e-06, No Iterations 2
DILUPBiCG:  Solving for Uz, Initial residual = 0.011939109, Final residual = 1.7486783e-06, No Iterations 2
DILUPBiCG:  Solving for h, Initial residual = 0.00288457, Final residual = 1.5112301e-06, No Iterations 5
GAMG:  Solving for p_rgh, Initial residual = 0.0079635923, Final residual = 3.0340183e-06, No Iterations 4
time step continuity errors : sum local = 4.7755281e-05, global = -4.5006814e-06, cumulative = 0.0021622352
ExecutionTime = 7.33 s  ClockTime = 8 s
Inflow      : 4.1651372e-05 [kg/s]
Outflow     : 4.1647618e-05 [kg/s]
EnergyInflow  : 12.306406 [W]
EnergyOutflow : 12.509122 [W]
EnergyBalance : 0.20271569 [W]
rho max/avg/min : 1.2016495 1.1020263 0.92595508
T   max/avg/min : 381.07921 322.83626 293.68899
P   max/avg/min : 101324.91 101316.15 101307.4
Prg max/avg/min : 101325 101324.22 101320.96
U   max/avg/min : 0.32060201 0.1276285 0
Prg max-min : 4.0332847
 
sngrad(rho) :0.18916326 0.053306183 -0.11909606
 
Iteration Number = 62

DILUPBiCG:  Solving for Ux, Initial residual = 0.021051362, Final residual = 7.0912645e-06, No Iterations 2
DILUPBiCG:  Solving for Uy, Initial residual = 0.017578654, Final residual = 7.8223087e-06, No Iterations 2
DILUPBiCG:  Solving for Uz, Initial residual = 0.011219898, Final residual = 1.6438906e-06, No Iterations 2
DILUPBiCG:  Solving for h, Initial residual = 0.0022067083, Final residual = 1.3849652e-06, No Iterations 5
GAMG:  Solving for p_rgh, Initial residual = 0.0075808888, Final residual = 4.4329456e-06, No Iterations 4
time step continuity errors : sum local = 6.9454604e-05, global = -2.2364835e-05, cumulative = 0.0021398704
ExecutionTime = 7.35 s  ClockTime = 8 s
Inflow      : 4.2012248e-05 [kg/s]
Outflow     : 4.1993596e-05 [kg/s]
EnergyInflow  : 12.413031 [W]
EnergyOutflow : 12.613451 [W]
EnergyBalance : 0.20042015 [W]
rho max/avg/min : 1.2016497 1.101778 0.92556011
T   max/avg/min : 381.24184 322.93254 293.6886
P   max/avg/min : 101324.91 101316.15 101307.4
Prg max/avg/min : 101325 101324.22 101320.96
U   max/avg/min : 0.32953078 0.13009202 0
Prg max-min : 4.0384792
 
sngrad(rho) :0.1826113 0.051684572 -0.11920395
 
Iteration Number = 63

DILUPBiCG:  Solving for Ux, Initial residual = 0.019936148, Final residual = 5.7900774e-06, No Iterations 2
DILUPBiCG:  Solving for Uy, Initial residual = 0.018290112, Final residual = 1.4775349e-05, No Iterations 2
DILUPBiCG:  Solving for Uz, Initial residual = 0.010659424, Final residual = 1.5729216e-06, No Iterations 2
DILUPBiCG:  Solving for h, Initial residual = 0.0021006128, Final residual = 1.4010832e-06, No Iterations 5
GAMG:  Solving for p_rgh, Initial residual = 0.007216859, Final residual = 2.1835216e-06, No Iterations 4
time step continuity errors : sum local = 3.4095124e-05, global = 3.0895075e-07, cumulative = 0.0021401793
ExecutionTime = 7.39 s  ClockTime = 8 s
Inflow      : 4.2273604e-05 [kg/s]
Outflow     : 4.2273861e-05 [kg/s]
EnergyInflow  : 12.490252 [W]
EnergyOutflow : 12.698462 [W]
EnergyBalance : 0.20821002 [W]
rho max/avg/min : 1.2016499 1.101544 0.92500855
T   max/avg/min : 381.46917 323.02435 293.68825
P   max/avg/min : 101324.91 101316.15 101307.4
Prg max/avg/min : 101325 101324.22 101320.95
U   max/avg/min : 0.33835879 0.13247951 0
Prg max-min : 4.0451462
 
sngrad(rho) :0.17573825 0.049655849 -0.1191711
 
Iteration Number = 64

DILUPBiCG:  Solving for Ux, Initial residual = 0.019042959, Final residual = 5.7080428e-06, No Iterations 2
DILUPBiCG:  Solving for Uy, Initial residual = 0.019474507, Final residual = 8.1725524e-06, No Iterations 2
DILUPBiCG:  Solving for Uz, Initial residual = 0.010038461, Final residual = 1.4547976e-06, No Iterations 2
DILUPBiCG:  Solving for h, Initial residual = 0.0020279032, Final residual = 1.4381923e-06, No Iterations 5
GAMG:  Solving for p_rgh, Initial residual = 0.0068543744, Final residual = 4.3620665e-06, No Iterations 4
time step continuity errors : sum local = 6.7909721e-05, global = 9.7258889e-06, cumulative = 0.0021499052
ExecutionTime = 7.42 s  ClockTime = 8 s
Inflow      : 4.2507285e-05 [kg/s]
Outflow     : 4.2515397e-05 [kg/s]
EnergyInflow  : 12.559296 [W]
EnergyOutflow : 12.772098 [W]
EnergyBalance : 0.21280198 [W]
rho max/avg/min : 1.2016504 1.1013241 0.92438091
T   max/avg/min : 381.72818 323.11175 293.68792
P   max/avg/min : 101324.91 101316.15 101307.4
Prg max/avg/min : 101325 101324.22 101320.94
U   max/avg/min : 0.34707195 0.13481185 0
Prg max-min : 4.0547267
 
sngrad(rho) :0.16867205 0.047536435 -0.11893466
 
Iteration Number = 65

DILUPBiCG:  Solving for Ux, Initial residual = 0.018642205, Final residual = 5.6291498e-06, No Iterations 2
DILUPBiCG:  Solving for Uy, Initial residual = 0.019361841, Final residual = 9.9018509e-06, No Iterations 2
DILUPBiCG:  Solving for Uz, Initial residual = 0.0096894362, Final residual = 1.4009423e-06, No Iterations 2
DILUPBiCG:  Solving for h, Initial residual = 0.0019620155, Final residual = 1.4561506e-06, No Iterations 5
GAMG:  Solving for p_rgh, Initial residual = 0.0064968695, Final residual = 3.0007783e-06, No Iterations 4
time step continuity errors : sum local = 4.6638215e-05, global = -1.6581007e-05, cumulative = 0.0021333242
ExecutionTime = 7.46 s  ClockTime = 8 s
Inflow      : 4.27416e-05 [kg/s]
Outflow     : 4.2727771e-05 [kg/s]
EnergyInflow  : 12.628527 [W]
EnergyOutflow : 12.837148 [W]
EnergyBalance : 0.20862141 [W]
rho max/avg/min : 1.2016507 1.1011177 0.92370698
T   max/avg/min : 382.00669 323.19487 293.68763
[...]
time step continuity errors : sum local = 1.1938018e-06, global = 2.6235633e-07, cumulative = 0.0012663988
ExecutionTime = 86.24 s  ClockTime = 87 s
Inflow      : 3.9834942e-05 [kg/s]
Outflow     : 3.9835161e-05 [kg/s]
EnergyInflow  : 11.76972 [W]
EnergyOutflow : 12.035979 [W]
EnergyBalance : 0.26625935 [W]
rho max/avg/min : 1.2016458 1.1119191 0.91985548
T   max/avg/min : 383.60617 320.13579 293.6859
P   max/avg/min : 101324.91 101316.16 101307.4
Prg max/avg/min : 101325 101324.29 101320.87
U   max/avg/min : 1.0430987 0.29532078 0
Prg max-min : 4.1234333
 
sngrad(rho) :-0.0001128314 -0.00017920836 -0.00026015237
 
Iteration Number = 777

DILUPBiCG:  Solving for Ux, Initial residual = 0.00011057442, Final residual = 1.6537274e-10, No Iterations 3
DILUPBiCG:  Solving for Uy, Initial residual = 0.014638099, Final residual = 8.3037635e-06, No Iterations 2
DILUPBiCG:  Solving for Uz, Initial residual = 4.4957365e-06, Final residual = 6.2918153e-10, No Iterations 2
DILUPBiCG:  Solving for h, Initial residual = 1.2919013e-06, Final residual = 8.5864039e-10, No Iterations 5
GAMG:  Solving for p_rgh, Initial residual = 1.6258816e-06, Final residual = 1.3385102e-07, No Iterations 1
time step continuity errors : sum local = 1.7384654e-06, global = 2.0588163e-07, cumulative = 0.0012666046
ExecutionTime = 86.28 s  ClockTime = 87 s
Inflow      : 3.9834392e-05 [kg/s]
Outflow     : 3.9834563e-05 [kg/s]
EnergyInflow  : 11.769557 [W]
EnergyOutflow : 12.035803 [W]
EnergyBalance : 0.26624632 [W]
rho max/avg/min : 1.2016458 1.1119193 0.91985638
T   max/avg/min : 383.60579 320.13571 293.6859
P   max/avg/min : 101324.91 101316.16 101307.4
Prg max/avg/min : 101325 101324.29 101320.87
U   max/avg/min : 1.0431075 0.29532199 0
Prg max-min : 4.1234151
 
sngrad(rho) :-0.00011102417 -0.00017501285 -0.00025442215
 
Iteration Number = 778

DILUPBiCG:  Solving for Ux, Initial residual = 5.9649625e-05, Final residual = 7.7042238e-09, No Iterations 2
DILUPBiCG:  Solving for Uy, Initial residual = 0.014040248, Final residual = 1.0355796e-05, No Iterations 2
DILUPBiCG:  Solving for Uz, Initial residual = 4.4623624e-06, Final residual = 6.1968229e-10, No Iterations 2
DILUPBiCG:  Solving for h, Initial residual = 1.288443e-06, Final residual = 4.8478199e-09, No Iterations 4
GAMG:  Solving for p_rgh, Initial residual = 9.4654024e-07, Final residual = 9.4654024e-07, No Iterations 0
time step continuity errors : sum local = 1.2284689e-05, global = -2.3125594e-07, cumulative = 0.0012663734
ExecutionTime = 86.3 s  ClockTime = 87 s
Inflow      : 3.9834177e-05 [kg/s]
Outflow     : 3.9833984e-05 [kg/s]
EnergyInflow  : 11.769493 [W]
EnergyOutflow : 12.035633 [W]
EnergyBalance : 0.26613986 [W]
rho max/avg/min : 1.2016458 1.1119195 0.9198573
T   max/avg/min : 383.60541 320.13563 293.6859
P   max/avg/min : 101324.91 101316.16 101307.4
Prg max/avg/min : 101325 101324.29 101320.87
U   max/avg/min : 1.0431163 0.29532319 0
Prg max-min : 4.1234151
 
sngrad(rho) :-0.00012157383 -0.00017594986 -0.00025113778
 
Iteration Number = 779

DILUPBiCG:  Solving for Ux, Initial residual = 0.00023471355, Final residual = 1.7332597e-07, No Iterations 2
DILUPBiCG:  Solving for Uy, Initial residual = 0.013878263, Final residual = 6.6595233e-06, No Iterations 2
DILUPBiCG:  Solving for Uz, Initial residual = 4.5394948e-06, Final residual = 8.2609345e-09, No Iterations 2
DILUPBiCG:  Solving for h, Initial residual = 2.2732525e-06, Final residual = 4.498572e-09, No Iterations 4
GAMG:  Solving for p_rgh, Initial residual = 8.5099609e-06, Final residual = 3.1492434e-07, No Iterations 1
time step continuity errors : sum local = 4.0881456e-06, global = 3.9076411e-08, cumulative = 0.0012664125
ExecutionTime = 86.33 s  ClockTime = 87 s
Inflow      : 3.9833418e-05 [kg/s]
Outflow     : 3.9833451e-05 [kg/s]
EnergyInflow  : 11.769269 [W]
EnergyOutflow : 12.035477 [W]
EnergyBalance : 0.26620754 [W]
rho max/avg/min : 1.2016458 1.11192 0.91985821
T   max/avg/min : 383.60503 320.13548 293.6859
P   max/avg/min : 101324.91 101316.16 101307.4
Prg max/avg/min : 101325 101324.29 101320.87
U   max/avg/min : 1.0431246 0.29532431 0
Prg max-min : 4.1233738
 
sngrad(rho) :-0.00011527986 -0.00025894086 -0.00066694228
 
Iteration Number = 780

DILUPBiCG:  Solving for Ux, Initial residual = 0.0003350457, Final residual = 5.4769221e-10, No Iterations 3
DILUPBiCG:  Solving for Uy, Initial residual = 0.014050895, Final residual = 4.5401114e-07, No Iterations 3
DILUPBiCG:  Solving for Uz, Initial residual = 4.3514173e-06, Final residual = 7.6424264e-10, No Iterations 2
DILUPBiCG:  Solving for h, Initial residual = 1.3089881e-06, Final residual = 4.2015075e-09, No Iterations 4
GAMG:  Solving for G, Initial residual = 0.032229035, Final residual = 0.033328666, No Iterations 1000
GAMG:  Solving for p_rgh, Initial residual = 3.7011794e-06, Final residual = 1.7731869e-07, No Iterations 1
time step continuity errors : sum local = 2.3017544e-06, global = 4.4965303e-08, cumulative = 0.0012664574
ExecutionTime = 87.15 s  ClockTime = 88 s
Inflow      : 3.9832875e-05 [kg/s]
Outflow     : 3.9832913e-05 [kg/s]
EnergyInflow  : 11.769109 [W]
EnergyOutflow : 12.035314 [W]
EnergyBalance : 0.26620482 [W]
rho max/avg/min : 1.2016458 1.1119202 0.91985914
T   max/avg/min : 383.60464 320.1354 293.6859
P   max/avg/min : 101324.91 101316.16 101307.4
Prg max/avg/min : 101325 101324.29 101320.87
U   max/avg/min : 1.0431331 0.29532547 0
Prg max-min : 4.123389
 
sngrad(rho) :-0.00010289285 -0.00017654783 -0.00026615979
 
Iteration Number = 781

DILUPBiCG:  Solving for Ux, Initial residual = 0.00021287559, Final residual = 1.1198114e-07, No Iterations 2
DILUPBiCG:  Solving for Uy, Initial residual = 0.014078057, Final residual = 6.4608245e-06, No Iterations 2
DILUPBiCG:  Solving for Uz, Initial residual = 4.3378111e-06, Final residual = 6.2742069e-10, No Iterations 2
DILUPBiCG:  Solving for h, Initial residual = 3.5334049e-06, Final residual = 3.3541203e-10, No Iterations 6
GAMG:  Solving for p_rgh, Initial residual = 3.3185864e-06, Final residual = 1.8665912e-07, No Iterations 1
time step continuity errors : sum local = 2.4219723e-06, global = -1.2776287e-07, cumulative = 0.0012663297
ExecutionTime = 87.18 s  ClockTime = 88 s
Inflow      : 3.9832399e-05 [kg/s]
Outflow     : 3.9832293e-05 [kg/s]
EnergyInflow  : 11.768968 [W]
EnergyOutflow : 12.035132 [W]
EnergyBalance : 0.26616323 [W]
rho max/avg/min : 1.2016458 1.1119201 0.9198537
T   max/avg/min : 383.60691 320.13546 293.6859
P   max/avg/min : 101324.91 101316.16 101307.4
Prg max/avg/min : 101325 101324.29 101320.87
U   max/avg/min : 1.0431415 0.29532663 0
Prg max-min : 4.1234515
 
sngrad(rho) :0.00064255041 -0.00013244198 -0.00025184671
 
Iteration Number = 782

DILUPBiCG:  Solving for Ux, Initial residual = 0.00012121646, Final residual = 2.4232015e-10, No Iterations 3
DILUPBiCG:  Solving for Uy, Initial residual = 0.014516766, Final residual = 5.6980305e-06, No Iterations 2
DILUPBiCG:  Solving for Uz, Initial residual = 4.2862279e-06, Final residual = 6.0229216e-10, No Iterations 2
DILUPBiCG:  Solving for h, Initial residual = 2.3264975e-06, Final residual = 5.9058531e-09, No Iterations 3
GAMG:  Solving for p_rgh, Initial residual = 1.1401417e-06, Final residual = 6.1718386e-08, No Iterations 1
time step continuity errors : sum local = 7.9991418e-07, global = -3.0920994e-07, cumulative = 0.0012660205
ExecutionTime = 87.21 s  ClockTime = 88 s
Inflow      : 3.983191e-05 [kg/s]
Outflow     : 3.9831652e-05 [kg/s]
EnergyInflow  : 11.768824 [W]
EnergyOutflow : 12.034943 [W]
EnergyBalance : 0.26611899 [W]
rho max/avg/min : 1.2016458 1.11192 0.91985111
T   max/avg/min : 383.60799 320.13551 293.6859
P   max/avg/min : 101324.91 101316.16 101307.4
Prg max/avg/min : 101325 101324.29 101320.87
U   max/avg/min : 1.0431498 0.29532776 0
Prg max-min : 4.1234987
 
sngrad(rho) :0.00026349534 -0.0001337799 -0.00024263331
 
Iteration Number = 783

DILUPBiCG:  Solving for Ux, Initial residual = 8.5638193e-05, Final residual = 7.7433233e-08, No Iterations 2
DILUPBiCG:  Solving for Uy, Initial residual = 0.014814618, Final residual = 8.4392489e-06, No Iterations 2
DILUPBiCG:  Solving for Uz, Initial residual = 4.268722e-06, Final residual = 5.8806431e-10, No Iterations 2
DILUPBiCG:  Solving for h, Initial residual = 2.0484475e-06, Final residual = 7.097396e-09, No Iterations 3
GAMG:  Solving for p_rgh, Initial residual = 1.4674597e-06, Final residual = 6.1336203e-08, No Iterations 1
time step continuity errors : sum local = 7.9902925e-07, global = -4.0611485e-07, cumulative = 0.0012656143
ExecutionTime = 87.24 s  ClockTime = 88 s
Inflow      : 3.9831383e-05 [kg/s]
Outflow     : 3.9831044e-05 [kg/s]
EnergyInflow  : 11.768668 [W]
EnergyOutflow : 12.034764 [W]
EnergyBalance : 0.26609565 [W]
rho max/avg/min : 1.2016458 1.1119198 0.91984933
T   max/avg/min : 383.60873 320.13557 293.6859
P   max/avg/min : 101324.91 101316.16 101307.4
Prg max/avg/min : 101325 101324.29 101320.87
U   max/avg/min : 1.043158 0.29532888 0
Prg max-min : 4.1235187
 
sngrad(rho) :0.00015573467 -0.00013024511 -0.00023138353
 
Iteration Number = 784

DILUPBiCG:  Solving for Ux, Initial residual = 4.4735631e-05, Final residual = 4.9403778e-09, No Iterations 2
DILUPBiCG:  Solving for Uy, Initial residual = 0.013884419, Final residual = 1.8407828e-07, No Iterations 3
DILUPBiCG:  Solving for Uz, Initial residual = 4.2552044e-06, Final residual = 5.8328735e-10, No Iterations 2
DILUPBiCG:  Solving for h, Initial residual = 1.8896328e-06, Final residual = 8.5766123e-09, No Iterations 3
GAMG:  Solving for p_rgh, Initial residual = 8.9517076e-07, Final residual = 8.9517076e-07, No Iterations 0
time step continuity errors : sum local = 1.1619901e-05, global = -8.6300704e-07, cumulative = 0.0012647513
ExecutionTime = 87.27 s  ClockTime = 88 s
Inflow      : 3.9831175e-05 [kg/s]
Outflow     : 3.9830455e-05 [kg/s]
EnergyInflow  : 11.768606 [W]
EnergyOutflow : 12.03459 [W]
EnergyBalance : 0.26598387 [W]
rho max/avg/min : 1.2016458 1.1119197 0.91984795
T   max/avg/min : 383.60931 320.13563 293.6859
P   max/avg/min : 101324.91 101316.16 101307.4
Prg max/avg/min : 101325 101324.29 101320.87
U   max/avg/min : 1.0431663 0.29532999 0
Prg max-min : 4.1235187
 
sngrad(rho) :0.00010200996 -0.00012941245 -0.0002231408
 
Iteration Number = 785

DILUPBiCG:  Solving for Ux, Initial residual = 0.0004499499, Final residual = 9.7227899e-08, No Iterations 2
DILUPBiCG:  Solving for Uy, Initial residual = 0.014327148, Final residual = 2.9308693e-07, No Iterations 3
DILUPBiCG:  Solving for Uz, Initial residual = 4.2492397e-06, Final residual = 8.3732353e-10, No Iterations 2
DILUPBiCG:  Solving for h, Initial residual = 2.9173338e-06, Final residual = 4.3977316e-09, No Iterations 4
GAMG:  Solving for p_rgh, Initial residual = 7.6560593e-06, Final residual = 2.0501948e-07, No Iterations 1
time step continuity errors : sum local = 2.6633791e-06, global = -5.6951331e-07, cumulative = 0.0012641818
ExecutionTime = 87.3 s  ClockTime = 88 s
Inflow      : 3.9830332e-05 [kg/s]
Outflow     : 3.9829857e-05 [kg/s]
EnergyInflow  : 11.768357 [W]
EnergyOutflow : 12.034414 [W]
EnergyBalance : 0.26605671 [W]
rho max/avg/min : 1.2016458 1.1119196 0.91984664
T   max/avg/min : 383.60986 320.13569 293.6859
P   max/avg/min : 101324.91 101316.16 101307.4
Prg max/avg/min : 101325 101324.29 101320.87
U   max/avg/min : 1.0431742 0.29533089 0
Prg max-min : 4.1236023
 
sngrad(rho) :9.3662977e-05 -0.00016538892 -0.00049742512
 
Iteration Number = 786

DILUPBiCG:  Solving for Ux, Initial residual = 0.00072832584, Final residual = 1.9399078e-07, No Iterations 2
DILUPBiCG:  Solving for Uy, Initial residual = 0.014716182, Final residual = 1.3204849e-05, No Iterations 2
DILUPBiCG:  Solving for Uz, Initial residual = 4.2305589e-06, Final residual = 8.1390047e-10, No Iterations 2
DILUPBiCG:  Solving for h, Initial residual = 1.7353637e-06, Final residual = 3.0880247e-09, No Iterations 4
GAMG:  Solving for p_rgh, Initial residual = 3.5259172e-06, Final residual = 2.1658104e-07, No Iterations 1
time step continuity errors : sum local = 2.8147635e-06, global = -4.7984263e-07, cumulative = 0.001263702
ExecutionTime = 87.33 s  ClockTime = 88 s
Inflow      : 3.9829657e-05 [kg/s]
Outflow     : 3.9829257e-05 [kg/s]
EnergyInflow  : 11.768158 [W]
EnergyOutflow : 12.034233 [W]
EnergyBalance : 0.26607444 [W]
rho max/avg/min : 1.2016458 1.1119195 0.91984556
T   max/avg/min : 383.6103 320.13575 293.6859
P   max/avg/min : 101324.91 101316.16 101307.4
Prg max/avg/min : 101325 101324.29 101320.87
U   max/avg/min : 1.0431822 0.29533194 0
Prg max-min : 4.1235473
 
sngrad(rho) :6.0736619e-05 -0.00013131313 -0.00022048031
 
Iteration Number = 787

DILUPBiCG:  Solving for Ux, Initial residual = 0.00046317409, Final residual = 1.0027013e-07, No Iterations 2
DILUPBiCG:  Solving for Uy, Initial residual = 0.014293934, Final residual = 6.3601882e-06, No Iterations 2
DILUPBiCG:  Solving for Uz, Initial residual = 4.2182236e-06, Final residual = 6.1981225e-10, No Iterations 2
DILUPBiCG:  Solving for h, Initial residual = 1.5884395e-06, Final residual = 3.1722775e-09, No Iterations 5
GAMG:  Solving for p_rgh, Initial residual = 2.8259556e-06, Final residual = 1.0915792e-07, No Iterations 1
time step continuity errors : sum local = 1.4179697e-06, global = -4.7263275e-07, cumulative = 0.0012632293
ExecutionTime = 87.36 s  ClockTime = 88 s
Inflow      : 3.9829025e-05 [kg/s]
Outflow     : 3.9828631e-05 [kg/s]
EnergyInflow  : 11.767971 [W]
EnergyOutflow : 12.034048 [W]
EnergyBalance : 0.26607688 [W]
rho max/avg/min : 1.2016458 1.1119193 0.91984465
T   max/avg/min : 383.61068 320.13582 293.6859
P   max/avg/min : 101324.91 101316.16 101307.4
Prg max/avg/min : 101325 101324.29 101320.87
U   max/avg/min : 1.0431901 0.29533297 0
Prg max-min : 4.1236089
 
sngrad(rho) :3.9582589e-05 -0.00012507308 -0.00020225708
 
Iteration Number = 788

DILUPBiCG:  Solving for Ux, Initial residual = 0.00030152974, Final residual = 2.1588539e-07, No Iterations 2
DILUPBiCG:  Solving for Uy, Initial residual = 0.014109447, Final residual = 1.266063e-05, No Iterations 2
DILUPBiCG:  Solving for Uz, Initial residual = 4.2148507e-06, Final residual = 5.768037e-10, No Iterations 2
DILUPBiCG:  Solving for h, Initial residual = 1.5138269e-06, Final residual = 4.2755724e-09, No Iterations 4
GAMG:  Solving for p_rgh, Initial residual = 6.8240248e-07, Final residual = 6.8240248e-07, No Iterations 0
time step continuity errors : sum local = 8.8556335e-06, global = -9.0219287e-07, cumulative = 0.0012623272
ExecutionTime = 87.39 s  ClockTime = 88 s
Inflow      : 3.9828779e-05 [kg/s]
Outflow     : 3.9828026e-05 [kg/s]
EnergyInflow  : 11.767899 [W]
EnergyOutflow : 12.033871 [W]
EnergyBalance : 0.26597211 [W]
rho max/avg/min : 1.2016458 1.1119191 0.91984386
T   max/avg/min : 383.61101 320.13589 293.6859
P   max/avg/min : 101324.91 101316.16 101307.4
Prg max/avg/min : 101325 101324.29 101320.87
U   max/avg/min : 1.0431981 0.29533399 0
Prg max-min : 4.1236089
 
sngrad(rho) :2.3460293e-05 -0.00012420093 -0.00019823296
 
Iteration Number = 789

DILUPBiCG:  Solving for Ux, Initial residual = 0.00021100372, Final residual = 7.4795536e-08, No Iterations 2
DILUPBiCG:  Solving for Uy, Initial residual = 0.014557518, Final residual = 4.1068497e-06, No Iterations 3
DILUPBiCG:  Solving for Uz, Initial residual = 4.1521424e-06, Final residual = 5.1671346e-09, No Iterations 2
DILUPBiCG:  Solving for h, Initial residual = 1.6603264e-06, Final residual = 5.9408092e-09, No Iterations 4
GAMG:  Solving for p_rgh, Initial residual = 6.4882839e-06, Final residual = 4.2774696e-07, No Iterations 1
time step continuity errors : sum local = 5.5563528e-06, global = -3.8189509e-07, cumulative = 0.0012619453
ExecutionTime = 87.42 s  ClockTime = 88 s
Inflow      : 3.9827816e-05 [kg/s]
Outflow     : 3.9827498e-05 [kg/s]
EnergyInflow  : 11.767614 [W]
EnergyOutflow : 12.033716 [W]
EnergyBalance : 0.2661015 [W]
rho max/avg/min : 1.2016458 1.111919 0.91984328
T   max/avg/min : 383.61126 320.13594 293.6859
P   max/avg/min : 101324.91 101316.16 101307.4
Prg max/avg/min : 101325 101324.29 101320.87
U   max/avg/min : 1.0432058 0.29533507 0
Prg max-min : 4.1235837
 
sngrad(rho) :-4.3541842e-06 -0.00015446127 -0.00035723542
 
Iteration Number = 790

DILUPBiCG:  Solving for Ux, Initial residual = 0.00031175037, Final residual = 1.5990491e-07, No Iterations 2
DILUPBiCG:  Solving for Uy, Initial residual = 0.014321384, Final residual = 7.2277688e-06, No Iterations 2
DILUPBiCG:  Solving for Uz, Initial residual = 4.1281858e-06, Final residual = 5.5308937e-10, No Iterations 2
DILUPBiCG:  Solving for h, Initial residual = 1.4334432e-06, Final residual = 3.5558945e-09, No Iterations 4
GAMG:  Solving for G, Initial residual = 0.033192896, Final residual = 0.032420845, No Iterations 1000
GAMG:  Solving for p_rgh, Initial residual = 2.9432933e-06, Final residual = 2.056003e-07, No Iterations 1
time step continuity errors : sum local = 2.6665466e-06, global = -1.472985e-07, cumulative = 0.001261798
ExecutionTime = 88.24 s  ClockTime = 89 s
Inflow      : 3.982709e-05 [kg/s]
Outflow     : 3.9826968e-05 [kg/s]
EnergyInflow  : 11.7674 [W]
EnergyOutflow : 12.033559 [W]
EnergyBalance : 0.26615929 [W]
rho max/avg/min : 1.2016458 1.1119188 0.9198427
T   max/avg/min : 383.6115 320.13601 293.6859
P   max/avg/min : 101324.91 101316.16 101307.4
Prg max/avg/min : 101325 101324.29 101320.87
U   max/avg/min : 1.0432135 0.29533608 0
Prg max-min : 4.1236332
 
sngrad(rho) :-4.6432191e-06 -0.00011360188 -0.00019020779
 
Iteration Number = 791

DILUPBiCG:  Solving for Ux, Initial residual = 0.00020607449, Final residual = 3.4514392e-08, No Iterations 2
DILUPBiCG:  Solving for Uy, Initial residual = 0.01471488, Final residual = 7.5933997e-06, No Iterations 2
DILUPBiCG:  Solving for Uz, Initial residual = 4.1661858e-06, Final residual = 5.7663431e-10, No Iterations 2
DILUPBiCG:  Solving for h, Initial residual = 1.5606647e-06, Final residual = 9.5548965e-09, No Iterations 3
GAMG:  Solving for p_rgh, Initial residual = 1.363334e-06, Final residual = 4.4045481e-08, No Iterations 1
time step continuity errors : sum local = 5.7432038e-07, global = -5.9857921e-08, cumulative = 0.0012617381
ExecutionTime = 88.27 s  ClockTime = 89 s
Inflow      : 3.9826445e-05 [kg/s]
Outflow     : 3.9826395e-05 [kg/s]
EnergyInflow  : 11.767209 [W]
EnergyOutflow : 12.033392 [W]
EnergyBalance : 0.26618292 [W]
rho max/avg/min : 1.2016458 1.1119186 0.91984284
T   max/avg/min : 383.61144 320.13606 293.6859
P   max/avg/min : 101324.91 101316.16 101307.4
Prg max/avg/min : 101325 101324.29 101320.87
U   max/avg/min : 1.0432211 0.29533707 0
Prg max-min : 4.1236055
 
sngrad(rho) :-3.9740598e-05 -0.00012470492 -0.00017980925
 
Iteration Number = 792

DILUPBiCG:  Solving for Ux, Initial residual = 0.00012109759, Final residual = 6.271057e-08, No Iterations 2
DILUPBiCG:  Solving for Uy, Initial residual = 0.014321908, Final residual = 8.9913713e-06, No Iterations 2
DILUPBiCG:  Solving for Uz, Initial residual = 4.1495605e-06, Final residual = 5.5392254e-10, No Iterations 2
DILUPBiCG:  Solving for h, Initial residual = 9.6387357e-07, Final residual = 7.3881055e-09, No Iterations 4
GAMG:  Solving for p_rgh, Initial residual = 7.2182524e-07, Final residual = 7.2182524e-07, No Iterations 0
time step continuity errors : sum local = 9.3682425e-06, global = -4.8066008e-07, cumulative = 0.0012612574
ExecutionTime = 88.3 s  ClockTime = 89 s
Inflow      : 3.9826193e-05 [kg/s]
Outflow     : 3.9825792e-05 [kg/s]
EnergyInflow  : 11.767135 [W]
EnergyOutflow : 12.033215 [W]
EnergyBalance : 0.26608067 [W]
rho max/avg/min : 1.2016458 1.1119185 0.91984272
T   max/avg/min : 383.61149 320.13611 293.6859
P   max/avg/min : 101324.91 101316.16 101307.4
Prg max/avg/min : 101325 101324.29 101320.87
U   max/avg/min : 1.0432288 0.29533804 0
Prg max-min : 4.1236055
 
sngrad(rho) :-5.2197257e-05 -0.0001276403 -0.00017376723
 

SIMPLE solution converged in 792 iterations

End

