/*---------------------------------------------------------------------------*\
| =========                 |                                                 |
| \\      /  F ield         | OpenFOAM: The Open Source CFD Toolbox           |
|  \\    /   O peration     | Version:  4.0                                   |
|   \\  /    A nd           | Web:      www.OpenFOAM.org                      |
|    \\/     M anipulation  |                                                 |
\*---------------------------------------------------------------------------*/
Build  : 4.0-665f1db4c1f1
Exec   : pupoBuoyantSimpleFoam
Date   : Aug 22 2016
Time   : 00:32:07
Host   : "SC500"
PID    : 19924
Case   : /home/pedro/Documents/ThesisProject/OpenFoam/validation1rod/NoRad
nProcs : 1
sigFpe : Enabling floating point exception trapping (FOAM_SIGFPE).
fileModificationChecking : Monitoring run-time modified files using timeStampMaster
allowSystemOperations : Allowing user-supplied system call operations

// * * * * * * * * * * * * * * * * * * * * * * * * * * * * * * * * * * * * * //
Create time

Create mesh for time = 0


SIMPLE: convergence criteria
    field p_rgh	 tolerance 1e-06
    field Uz	 tolerance 1e-06
    field h	 tolerance 1e-06

Reading thermophysical properties

Selecting thermodynamics package 
{
    type            heRhoThermo;
    mixture         pureMixture;
    transport       sutherland;
    thermo          hConst;
    equationOfState perfectGas;
    specie          specie;
    energy          sensibleEnthalpy;
}


Reading g

Reading hRef
Calculating field g.h

Selecting turbulence model type laminar
No MRF models present

Selecting radiationModel none
 
rho max/avg/min : 1.2016452 1.2015414 1.2014377
T   max/avg/min : 293.7 293.7 293.7
P   max/avg/min : 101324.91 101316.16 101307.41
Prg max/avg/min : 101325 101325 101325
U   max/avg/min : 0 0 0
 
No finite volume options present


Starting Iteration loop

Iteration Number = 1

DILUPBiCG:  Solving for Ux, Initial residual = 0.009764874, Final residual = 1.3546237e-06, No Iterations 2
DILUPBiCG:  Solving for Uy, Initial residual = 4.8698736e-07, Final residual = 7.7482914e-11, No Iterations 2
DILUPBiCG:  Solving for Uz, Initial residual = 1, Final residual = 0.00034325924, No Iterations 2
DILUPBiCG:  Solving for h, Initial residual = 1, Final residual = 0.00045974485, No Iterations 1
GAMG:  Solving for p_rgh, Initial residual = 0.81408564, Final residual = 0.0005768331, No Iterations 2
time step continuity errors : sum local = 0.00020543603, global = -4.589615e-05, cumulative = -4.589615e-05
ExecutionTime = 0.09 s  ClockTime = 0 s
Inflow      : -2.2520317e-07 [kg/s]
Outflow     : -2.6348053e-07 [kg/s]
EnergyInflow  : -0.066539024 [W]
EnergyOutflow : -0.077848538 [W]
rho max/avg/min : 1.2016452 1.1953618 1.0955956
T   max/avg/min : 322.07345 295.29785 293.7
P   max/avg/min : 101324.91 101316.16 101307.41
Prg max/avg/min : 101325 101324.95 101323.45
U   max/avg/min : 0.00010202756 -8.2849827e-05 -0.00087443578
Prg max-min : 1.5502098
 
Iteration Number = 2

DILUPBiCG:  Solving for Ux, Initial residual = 0.41283039, Final residual = 0.00011793842, No Iterations 2
DILUPBiCG:  Solving for Uy, Initial residual = 9.5997254e-05, Final residual = 2.4729633e-08, No Iterations 2
DILUPBiCG:  Solving for Uz, Initial residual = 0.40214225, Final residual = 4.7237125e-05, No Iterations 2
DILUPBiCG:  Solving for h, Initial residual = 0.24743099, Final residual = 6.2870632e-05, No Iterations 1
GAMG:  Solving for p_rgh, Initial residual = 0.023504111, Final residual = 1.3205103e-05, No Iterations 4
time step continuity errors : sum local = 7.9691386e-05, global = 1.7443405e-05, cumulative = -2.8452744e-05
ExecutionTime = 0.12 s  ClockTime = 0 s
Inflow      : -3.9353902e-07 [kg/s]
Outflow     : -3.7899123e-07 [kg/s]
EnergyInflow  : -0.11627591 [W]
EnergyOutflow : -0.11197758 [W]
rho max/avg/min : 1.2016452 1.1899281 1.049144
T   max/avg/min : 336.33407 296.78083 293.70001
P   max/avg/min : 101324.91 101316.16 101307.41
Prg max/avg/min : 101325 101324.91 101322.77
U   max/avg/min : 0.0003121199 -0.00010191195 -0.00090581647
Prg max-min : 2.231173
 
Iteration Number = 3

DILUPBiCG:  Solving for Ux, Initial residual = 0.55948858, Final residual = 0.00019712382, No Iterations 2
DILUPBiCG:  Solving for Uy, Initial residual = 0.00012089243, Final residual = 4.2499131e-08, No Iterations 2
DILUPBiCG:  Solving for Uz, Initial residual = 0.22480417, Final residual = 1.6114672e-05, No Iterations 2
DILUPBiCG:  Solving for h, Initial residual = 0.15306102, Final residual = 5.1324468e-05, No Iterations 1
GAMG:  Solving for p_rgh, Initial residual = 0.012059804, Final residual = 4.8428189e-06, No Iterations 3
time step continuity errors : sum local = 5.056391e-05, global = 4.3091598e-06, cumulative = -2.4143585e-05
ExecutionTime = 0.16 s  ClockTime = 0 s
Inflow      : -3.0429263e-07 [kg/s]
Outflow     : -3.006988e-07 [kg/s]
EnergyInflow  : -0.089906971 [W]
EnergyOutflow : -0.088844175 [W]
rho max/avg/min : 1.2016452 1.1849157 1.020804
T   max/avg/min : 345.67151 298.18422 293.70002
P   max/avg/min : 101324.91 101316.16 101307.41
Prg max/avg/min : 101325 101324.88 101322.35
U   max/avg/min : 0.00061100066 -7.7010543e-06 -0.00068240864
Prg max-min : 2.6459745
 
Iteration Number = 4

DILUPBiCG:  Solving for Ux, Initial residual = 0.44827655, Final residual = 0.00011718338, No Iterations 2
DILUPBiCG:  Solving for Uy, Initial residual = 7.7471968e-05, Final residual = 2.2880029e-08, No Iterations 2
DILUPBiCG:  Solving for Uz, Initial residual = 0.22871467, Final residual = 8.4791783e-06, No Iterations 2
DILUPBiCG:  Solving for h, Initial residual = 0.11034144, Final residual = 4.7035062e-05, No Iterations 1
GAMG:  Solving for p_rgh, Initial residual = 0.0072670751, Final residual = 3.6237235e-06, No Iterations 3
time step continuity errors : sum local = 5.3939483e-05, global = 2.9506957e-05, cumulative = 5.3633728e-06
ExecutionTime = 0.19 s  ClockTime = 0 s
Inflow      : -2.6787383e-07 [kg/s]
Outflow     : -2.4326505e-07 [kg/s]
EnergyInflow  : -0.079146592 [W]
EnergyOutflow : -0.07187283 [W]
rho max/avg/min : 1.2016451 1.1801018 0.99911183
T   max/avg/min : 353.17654 299.55874 293.70003
P   max/avg/min : 101324.91 101316.16 101307.41
Prg max/avg/min : 101325 101324.84 101322.04
U   max/avg/min : 0.00098479563 0.00011499462 -0.00055321139
Prg max-min : 2.9639377
 
Iteration Number = 5

DILUPBiCG:  Solving for Ux, Initial residual = 0.49416286, Final residual = 9.1398217e-05, No Iterations 2
DILUPBiCG:  Solving for Uy, Initial residual = 7.018306e-05, Final residual = 1.6697018e-08, No Iterations 2
DILUPBiCG:  Solving for Uz, Initial residual = 0.22616858, Final residual = 6.0867365e-06, No Iterations 2
DILUPBiCG:  Solving for h, Initial residual = 0.086993141, Final residual = 4.837453e-05, No Iterations 1
GAMG:  Solving for p_rgh, Initial residual = 0.0051911074, Final residual = 3.909271e-06, No Iterations 3
time step continuity errors : sum local = 7.4631162e-05, global = 1.9427122e-05, cumulative = 2.4790494e-05
ExecutionTime = 0.23 s  ClockTime = 0 s
Inflow      : -2.1588131e-07 [kg/s]
Outflow     : -1.996791e-07 [kg/s]
EnergyInflow  : -0.063784766 [W]
EnergyOutflow : -0.058991296 [W]
rho max/avg/min : 1.201645 1.1754215 0.98123184
T   max/avg/min : 359.61148 300.91713 293.70004
P   max/avg/min : 101324.91 101316.16 101307.41
Prg max/avg/min : 101325 101324.81 101321.77
U   max/avg/min : 0.0014546969 0.00028206516 -0.0004866723
Prg max-min : 3.2255119
 
Iteration Number = 6

DILUPBiCG:  Solving for Ux, Initial residual = 0.36959561, Final residual = 5.9878011e-05, No Iterations 2
DILUPBiCG:  Solving for Uy, Initial residual = 7.1357138e-05, Final residual = 1.5269409e-08, No Iterations 2
DILUPBiCG:  Solving for Uz, Initial residual = 0.20640228, Final residual = 4.601602e-06, No Iterations 2
DILUPBiCG:  Solving for h, Initial residual = 0.072051555, Final residual = 5.3292233e-05, No Iterations 1
GAMG:  Solving for p_rgh, Initial residual = 0.0042048002, Final residual = 3.9786596e-06, No Iterations 3
time step continuity errors : sum local = 9.3056383e-05, global = 5.1396991e-05, cumulative = 7.6187485e-05
ExecutionTime = 0.26 s  ClockTime = 0 s
Inflow      : -2.0900141e-07 [kg/s]
Outflow     : -1.6613635e-07 [kg/s]
EnergyInflow  : -0.061752017 [W]
EnergyOutflow : -0.049074588 [W]
rho max/avg/min : 1.201645 1.1708499 0.96599729
T   max/avg/min : 365.28285 302.26267 293.70004
P   max/avg/min : 101324.91 101316.16 101307.41
Prg max/avg/min : 101325 101324.77 101321.55
U   max/avg/min : 0.0020167338 0.00050820255 -0.00044265792
Prg max-min : 3.4487453
 
Iteration Number = 7

DILUPBiCG:  Solving for Ux, Initial residual = 0.33443248, Final residual = 4.6176005e-05, No Iterations 2
DILUPBiCG:  Solving for Uy, Initial residual = 8.6871658e-05, Final residual = 1.5377411e-08, No Iterations 2
DILUPBiCG:  Solving for Uz, Initial residual = 0.20247499, Final residual = 4.4824363e-06, No Iterations 2
DILUPBiCG:  Solving for h, Initial residual = 0.061644093, Final residual = 6.1244917e-05, No Iterations 1
GAMG:  Solving for p_rgh, Initial residual = 0.0037045952, Final residual = 2.0196382e-06, No Iterations 4
time step continuity errors : sum local = 5.5333313e-05, global = 1.1871898e-05, cumulative = 8.8059383e-05
ExecutionTime = 0.3 s  ClockTime = 0 s
Inflow      : -1.4828367e-07 [kg/s]
Outflow     : -1.3838252e-07 [kg/s]
EnergyInflow  : -0.04381222 [W]
EnergyOutflow : -0.040864501 [W]
rho max/avg/min : 1.2016449 1.1663729 0.95272664
T   max/avg/min : 370.37092 303.59666 293.70004
P   max/avg/min : 101324.91 101316.16 101307.41
Prg max/avg/min : 101325 101324.74 101321.36
U   max/avg/min : 0.0026842641 0.00081987204 -0.0003446617
Prg max-min : 3.6428979
 
Iteration Number = 8

DILUPBiCG:  Solving for Ux, Initial residual = 0.30059865, Final residual = 3.9004964e-05, No Iterations 2
DILUPBiCG:  Solving for Uy, Initial residual = 0.000119429, Final residual = 1.619874e-08, No Iterations 2
DILUPBiCG:  Solving for Uz, Initial residual = 0.18738846, Final residual = 4.0273529e-06, No Iterations 2
DILUPBiCG:  Solving for h, Initial residual = 0.053947625, Final residual = 1.2623664e-06, No Iterations 2
GAMG:  Solving for p_rgh, Initial residual = 0.0036327651, Final residual = 9.882584e-07, No Iterations 4
time step continuity errors : sum local = 3.1442805e-05, global = 2.3643534e-05, cumulative = 0.00011170292
ExecutionTime = 0.33 s  ClockTime = 1 s
Inflow      : -1.3718866e-07 [kg/s]
Outflow     : -1.1746997e-07 [kg/s]
EnergyInflow  : -0.040534063 [W]
EnergyOutflow : -0.034670291 [W]
rho max/avg/min : 1.201645 1.1619733 0.94098016
T   max/avg/min : 374.99434 304.9216 293.70004
P   max/avg/min : 101324.91 101316.16 101307.41
Prg max/avg/min : 101325 101324.71 101321.19
U   max/avg/min : 0.0034805442 0.0012148 -0.00037717774
Prg max-min : 3.8147795
 
Iteration Number = 9

DILUPBiCG:  Solving for Ux, Initial residual = 0.25363616, Final residual = 3.4850447e-05, No Iterations 2
DILUPBiCG:  Solving for Uy, Initial residual = 0.00014888798, Final residual = 1.2686155e-08, No Iterations 2
DILUPBiCG:  Solving for Uz, Initial residual = 0.17101388, Final residual = 3.6992658e-06, No Iterations 2
DILUPBiCG:  Solving for h, Initial residual = 0.048053582, Final residual = 1.9490718e-06, No Iterations 2
GAMG:  Solving for p_rgh, Initial residual = 0.0034210888, Final residual = 1.2611515e-06, No Iterations 4
time step continuity errors : sum local = 4.4989955e-05, global = 1.4179102e-06, cumulative = 0.00011312083
ExecutionTime = 0.37 s  ClockTime = 1 s
Inflow      : -1.0392065e-07 [kg/s]
Outflow     : -1.0273811e-07 [kg/s]
EnergyInflow  : -0.030704623 [W]
EnergyOutflow : -0.030294372 [W]
rho max/avg/min : 1.2016448 1.1576503 0.93044502
T   max/avg/min : 379.24029 306.23641 293.70006
P   max/avg/min : 101324.91 101316.16 101307.41
Prg max/avg/min : 101325 101324.68 101321.03
U   max/avg/min : 0.0044317526 0.0017258089 -0.0003625927
Prg max-min : 3.9689665
 
Iteration Number = 10

DILUPBiCG:  Solving for Ux, Initial residual = 0.20448405, Final residual = 2.8373485e-05, No Iterations 2
DILUPBiCG:  Solving for Uy, Initial residual = 0.00021689868, Final residual = 1.165353e-08, No Iterations 2
DILUPBiCG:  Solving for Uz, Initial residual = 0.16372514, Final residual = 4.438183e-06, No Iterations 2
DILUPBiCG:  Solving for h, Initial residual = 0.043314547, Final residual = 2.7256959e-06, No Iterations 2
GAMG:  Solving for p_rgh, Initial residual = 0.0033934958, Final residual = 1.7373902e-06, No Iterations 4
time step continuity errors : sum local = 6.8954276e-05, global = 4.5688359e-05, cumulative = 0.00015880919
ExecutionTime = 0.41 s  ClockTime = 1 s
Inflow      : -1.3260921e-07 [kg/s]
Outflow     : -9.4505145e-08 [kg/s]
EnergyInflow  : -0.039181009 [W]
EnergyOutflow : -0.027827507 [W]
rho max/avg/min : 1.2016447 1.153399 0.92090096
T   max/avg/min : 383.17067 307.54121 293.7001
P   max/avg/min : 101324.91 101316.16 101307.41
Prg max/avg/min : 101325 101324.65 101320.89
U   max/avg/min : 0.0055787507 0.0023623319 -0.00052290983
Prg max-min : 4.1084389
 
Iteration Number = 11

DILUPBiCG:  Solving for Ux, Initial residual = 0.18068297, Final residual = 2.9825255e-05, No Iterations 2
DILUPBiCG:  Solving for Uy, Initial residual = 0.00031711548, Final residual = 1.8569405e-08, No Iterations 2
DILUPBiCG:  Solving for Uz, Initial residual = 0.15696886, Final residual = 5.5260881e-06, No Iterations 2
DILUPBiCG:  Solving for h, Initial residual = 0.039478689, Final residual = 4.6636607e-06, No Iterations 2
GAMG:  Solving for p_rgh, Initial residual = 0.0033344569, Final residual = 8.3876385e-07, No Iterations 4
time step continuity errors : sum local = 3.5913622e-05, global = -1.0946351e-06, cumulative = 0.00015771455
ExecutionTime = 0.44 s  ClockTime = 1 s
Inflow      : -9.1288375e-08 [kg/s]
Outflow     : -9.22013e-08 [kg/s]
EnergyInflow  : -0.026972264 [W]
EnergyOutflow : -0.02709655 [W]
rho max/avg/min : 1.2016442 1.1492152 0.91218522
T   max/avg/min : 386.83179 308.83607 293.70017
P   max/avg/min : 101324.91 101316.16 101307.41
Prg max/avg/min : 101325 101324.61 101320.76
U   max/avg/min : 0.0069617646 0.0031683007 -0.00063181355
Prg max-min : 4.2360862
 
Iteration Number = 12

DILUPBiCG:  Solving for Ux, Initial residual = 0.15725364, Final residual = 2.86447e-05, No Iterations 2
DILUPBiCG:  Solving for Uy, Initial residual = 0.00045110359, Final residual = 2.2106679e-08, No Iterations 2
DILUPBiCG:  Solving for Uz, Initial residual = 0.15574595, Final residual = 6.7618163e-06, No Iterations 2
DILUPBiCG:  Solving for h, Initial residual = 0.036242878, Final residual = 6.0560544e-06, No Iterations 2
GAMG:  Solving for p_rgh, Initial residual = 0.0035395933, Final residual = 2.8052229e-06, No Iterations 4
time step continuity errors : sum local = 0.00013036818, global = 2.7683835e-05, cumulative = 0.00018539839
ExecutionTime = 0.48 s  ClockTime = 1 s
Inflow      : -1.2179729e-07 [kg/s]
Outflow     : -9.8708987e-08 [kg/s]
EnergyInflow  : -0.035986495 [W]
EnergyOutflow : -0.028946507 [W]
rho max/avg/min : 1.2016436 1.1450966 0.9041724
T   max/avg/min : 390.25991 310.12072 293.7003
P   max/avg/min : 101324.91 101316.16 101307.41
Prg max/avg/min : 101325 101324.58 101320.65
U   max/avg/min : 0.0086240469 0.0041416655 -0.0010118067
Prg max-min : 4.3528198
 
Iteration Number = 13

DILUPBiCG:  Solving for Ux, Initial residual = 0.161766, Final residual = 3.3956896e-05, No Iterations 2
DILUPBiCG:  Solving for Uy, Initial residual = 0.000659074, Final residual = 4.1307852e-08, No Iterations 2
DILUPBiCG:  Solving for Uz, Initial residual = 0.15081331, Final residual = 9.413446e-06, No Iterations 2
DILUPBiCG:  Solving for h, Initial residual = 0.033501322, Final residual = 9.3468041e-06, No Iterations 2
GAMG:  Solving for p_rgh, Initial residual = 0.0036416358, Final residual = 1.0295286e-06, No Iterations 4
time step continuity errors : sum local = 5.0227961e-05, global = 1.0219409e-05, cumulative = 0.0001956178
ExecutionTime = 0.51 s  ClockTime = 1 s
Inflow      : -1.2754534e-07 [kg/s]
Outflow     : -1.1902236e-07 [kg/s]
EnergyInflow  : -0.037684827 [W]
EnergyOutflow : -0.03484337 [W]
rho max/avg/min : 1.201642 1.1410408 0.89676439
T   max/avg/min : 393.48378 311.39505 293.70055
P   max/avg/min : 101324.91 101316.16 101307.41
Prg max/avg/min : 101325 101324.55 101320.54
U   max/avg/min : 0.010621119 0.005333975 -0.0013531436
Prg max-min : 4.4613349
 
Iteration Number = 14

DILUPBiCG:  Solving for Ux, Initial residual = 0.15005642, Final residual = 3.530807e-05, No Iterations 2
DILUPBiCG:  Solving for Uy, Initial residual = 0.00086628089, Final residual = 7.1281014e-08, No Iterations 2
DILUPBiCG:  Solving for Uz, Initial residual = 0.1454612, Final residual = 5.7733427e-06, No Iterations 2
DILUPBiCG:  Solving for h, Initial residual = 0.031119594, Final residual = 1.3315122e-05, No Iterations 2
GAMG:  Solving for p_rgh, Initial residual = 0.003970307, Final residual = 1.0720247e-06, No Iterations 5
time step continuity errors : sum local = 5.4801464e-05, global = 3.0304026e-05, cumulative = 0.00022592182
ExecutionTime = 0.54 s  ClockTime = 1 s
Inflow      : -1.7204592e-07 [kg/s]
Outflow     : -1.4677238e-07 [kg/s]
EnergyInflow  : -0.050833065 [W]
EnergyOutflow : -0.042890473 [W]
rho max/avg/min : 1.2016397 1.1370477 0.88988194
T   max/avg/min : 396.52703 312.65847 293.70101
P   max/avg/min : 101324.91 101316.16 101307.41
Prg max/avg/min : 101325 101324.53 101320.44
U   max/avg/min : 0.013005889 0.006748754 -0.0020030895
Prg max-min : 4.5613088
 
Iteration Number = 15

DILUPBiCG:  Solving for Ux, Initial residual = 0.14763865, Final residual = 4.3858713e-05, No Iterations 2
DILUPBiCG:  Solving for Uy, Initial residual = 0.0011953079, Final residual = 1.2054836e-07, No Iterations 2
DILUPBiCG:  Solving for Uz, Initial residual = 0.14141813, Final residual = 1.2596223e-05, No Iterations 2
DILUPBiCG:  Solving for h, Initial residual = 0.029016453, Final residual = 1.9557845e-05, No Iterations 2
GAMG:  Solving for p_rgh, Initial residual = 0.0045702713, Final residual = 2.4942391e-06, No Iterations 4
time step continuity errors : sum local = 0.00013090689, global = 3.4288167e-05, cumulative = 0.00026020999
ExecutionTime = 0.58 s  ClockTime = 1 s
Inflow      : -2.2605488e-07 [kg/s]
Outflow     : -1.9745857e-07 [kg/s]
EnergyInflow  : -0.066790673 [W]
EnergyOutflow : -0.057646415 [W]
rho max/avg/min : 1.2016349 1.1331172 0.88346055
T   max/avg/min : 399.40917 313.9104 293.70191
P   max/avg/min : 101324.91 101316.16 101307.41
Prg max/avg/min : 101325 101324.5 101320.35
U   max/avg/min : 0.01584795 0.0084032973 -0.0028236152
Prg max-min : 4.6548961
 
Iteration Number = 16

DILUPBiCG:  Solving for Ux, Initial residual = 0.12407447, Final residual = 4.5376955e-05, No Iterations 2
DILUPBiCG:  Solving for Uy, Initial residual = 0.0014147166, Final residual = 2.2378262e-07, No Iterations 2
DILUPBiCG:  Solving for Uz, Initial residual = 0.13325271, Final residual = 9.2791019e-06, No Iterations 2
DILUPBiCG:  Solving for h, Initial residual = 0.02713851, Final residual = 2.3107261e-06, No Iterations 4
GAMG:  Solving for p_rgh, Initial residual = 0.0049617721, Final residual = 1.3108726e-06, No Iterations 5
time step continuity errors : sum local = 6.9890201e-05, global = 6.576108e-06, cumulative = 0.0002667861
ExecutionTime = 0.62 s  ClockTime = 1 s
Inflow      : -2.5406959e-07 [kg/s]
Outflow     : -2.4858512e-07 [kg/s]
EnergyInflow  : -0.075067961 [W]
EnergyOutflow : -0.072431522 [W]
rho max/avg/min : 1.2016246 1.1292431 0.87744645
T   max/avg/min : 402.14676 315.1519 293.7041
P   max/avg/min : 101324.91 101316.16 101307.41
Prg max/avg/min : 101325 101324.47 101320.26
U   max/avg/min : 0.019198403 0.01033325 -0.0038555197
Prg max-min : 4.7423769
 
Iteration Number = 17

DILUPBiCG:  Solving for Ux, Initial residual = 0.12310712, Final residual = 5.8337693e-05, No Iterations 2
DILUPBiCG:  Solving for Uy, Initial residual = 0.0019781252, Final residual = 4.1889843e-07, No Iterations 2
DILUPBiCG:  Solving for Uz, Initial residual = 0.12656497, Final residual = 1.2022821e-05, No Iterations 2
DILUPBiCG:  Solving for h, Initial residual = 0.025428717, Final residual = 3.8039883e-06, No Iterations 4
GAMG:  Solving for p_rgh, Initial residual = 0.0061422839, Final residual = 2.0833317e-06, No Iterations 5
time step continuity errors : sum local = 0.0001132714, global = 4.4440259e-05, cumulative = 0.00031122635
ExecutionTime = 0.65 s  ClockTime = 1 s
Inflow      : -3.5202055e-07 [kg/s]
Outflow     : -3.149574e-07 [kg/s]
EnergyInflow  : -0.10400877 [W]
EnergyOutflow : -0.091575 [W]
rho max/avg/min : 1.2016103 1.1254316 0.87179533
T   max/avg/min : 404.75355 316.3809 293.70855
P   max/avg/min : 101324.91 101316.16 101307.41
Prg max/avg/min : 101325 101324.44 101320.18
U   max/avg/min : 0.023157084 0.012529094 -0.0052282013
Prg max-min : 4.8245776
 
Iteration Number = 18

DILUPBiCG:  Solving for Ux, Initial residual = 0.11832022, Final residual = 6.36359e-05, No Iterations 2
DILUPBiCG:  Solving for Uy, Initial residual = 0.0025516132, Final residual = 6.9347592e-07, No Iterations 2
DILUPBiCG:  Solving for Uz, Initial residual = 0.11769776, Final residual = 1.2455151e-05, No Iterations 2
DILUPBiCG:  Solving for h, Initial residual = 0.023853988, Final residual = 6.7580642e-06, No Iterations 4
GAMG:  Solving for p_rgh, Initial residual = 0.0070540175, Final residual = 2.3497901e-06, No Iterations 5
time step continuity errors : sum local = 0.00012835436, global = 5.0469085e-05, cumulative = 0.00036169544
ExecutionTime = 0.69 s  ClockTime = 1 s
Inflow      : -3.9379374e-07 [kg/s]
Outflow     : -3.5170255e-07 [kg/s]
EnergyInflow  : -0.11635116 [W]
EnergyOutflow : -0.10175806 [W]
rho max/avg/min : 1.2016029 1.1216856 0.86646939
T   max/avg/min : 407.24145 317.5963 293.71036
P   max/avg/min : 101324.91 101316.16 101307.41
Prg max/avg/min : 101325 101324.41 101320.1
U   max/avg/min : 0.027760542 0.015029671 -0.0069080809
Prg max-min : 4.9017996
 
Iteration Number = 19

DILUPBiCG:  Solving for Ux, Initial residual = 0.11970297, Final residual = 7.6621824e-05, No Iterations 2
DILUPBiCG:  Solving for Uy, Initial residual = 0.0032543059, Final residual = 1.7662657e-06, No Iterations 2
DILUPBiCG:  Solving for Uz, Initial residual = 0.10865766, Final residual = 1.3138556e-05, No Iterations 2
DILUPBiCG:  Solving for h, Initial residual = 0.022412112, Final residual = 1.2356921e-05, No Iterations 4
GAMG:  Solving for p_rgh, Initial residual = 0.0082709223, Final residual = 7.8090474e-06, No Iterations 4
time step continuity errors : sum local = 0.00043258161, global = 0.00014375683, cumulative = 0.00050545227
ExecutionTime = 0.73 s  ClockTime = 1 s
Inflow      : -5.3502501e-07 [kg/s]
Outflow     : -4.151319e-07 [kg/s]
EnergyInflow  : -0.15807967 [W]
EnergyOutflow : -0.11954215 [W]
rho max/avg/min : 1.2015982 1.1180084 0.86143618
T   max/avg/min : 409.6209 318.7968 293.7115
P   max/avg/min : 101324.91 101316.16 101307.41
Prg max/avg/min : 101325 101324.39 101320.03
U   max/avg/min : 0.033066471 0.017796821 -0.0087590169
Prg max-min : 4.9742118
 
Iteration Number = 20

DILUPBiCG:  Solving for Ux, Initial residual = 0.10981095, Final residual = 7.5517019e-05, No Iterations 2
DILUPBiCG:  Solving for Uy, Initial residual = 0.0035721956, Final residual = 2.2101506e-06, No Iterations 2
DILUPBiCG:  Solving for Uz, Initial residual = 0.10000554, Final residual = 1.4259511e-05, No Iterations 2
DILUPBiCG:  Solving for h, Initial residual = 0.021054854, Final residual = 6.5267157e-06, No Iterations 4
GAMG:  Solving for p_rgh, Initial residual = 0.0087548338, Final residual = 3.8009674e-06, No Iterations 4
time step continuity errors : sum local = 0.00021075358, global = 4.2122805e-05, cumulative = 0.00054757507
ExecutionTime = 0.77 s  ClockTime = 1 s
Inflow      : -4.2602991e-07 [kg/s]
Outflow     : -3.9089952e-07 [kg/s]
EnergyInflow  : -0.12587574 [W]
EnergyOutflow : -0.11106755 [W]
rho max/avg/min : 1.2015934 1.1143996 0.85666724
T   max/avg/min : 411.9012 319.98213 293.71268
P   max/avg/min : 101324.91 101316.16 101307.41
Prg max/avg/min : 101325 101324.36 101319.96
U   max/avg/min : 0.039131145 0.020905027 -0.011636882
Prg max-min : 5.0423218
 
Iteration Number = 21

DILUPBiCG:  Solving for Ux, Initial residual = 0.10064908, Final residual = 7.6244518e-05, No Iterations 2
DILUPBiCG:  Solving for Uy, Initial residual = 0.003965092, Final residual = 8.3611811e-08, No Iterations 3
DILUPBiCG:  Solving for Uz, Initial residual = 0.090988493, Final residual = 1.6190976e-05, No Iterations 2
DILUPBiCG:  Solving for h, Initial residual = 0.019815469, Final residual = 6.9063024e-06, No Iterations 4
GAMG:  Solving for p_rgh, Initial residual = 0.0095422603, Final residual = 5.7905502e-06, No Iterations 4
time step continuity errors : sum local = 0.00033386085, global = 0.00012396454, cumulative = 0.00067153961
ExecutionTime = 0.8 s  ClockTime = 1 s
Inflow      : -3.7771069e-07 [kg/s]
Outflow     : -2.7432434e-07 [kg/s]
EnergyInflow  : -0.11159923 [W]
EnergyOutflow : -0.074833186 [W]
rho max/avg/min : 1.2015907 1.1108662 0.85213862
T   max/avg/min : 414.09022 321.15014 293.71333
P   max/avg/min : 101324.91 101316.16 101307.42
Prg max/avg/min : 101325 101324.33 101319.9
U   max/avg/min : 0.045969046 0.024264034 -0.01465937
Prg max-min : 5.1067014
 
Iteration Number = 22

DILUPBiCG:  Solving for Ux, Initial residual = 0.095071096, Final residual = 8.0396967e-05, No Iterations 2
DILUPBiCG:  Solving for Uy, Initial residual = 0.0055131418, Final residual = 2.1239245e-07, No Iterations 3
DILUPBiCG:  Solving for Uz, Initial residual = 0.083920537, Final residual = 1.5827486e-05, No Iterations 2
DILUPBiCG:  Solving for h, Initial residual = 0.018653417, Final residual = 6.8698212e-06, No Iterations 4
GAMG:  Solving for p_rgh, Initial residual = 0.009891838, Final residual = 6.4391299e-06, No Iterations 4
time step continuity errors : sum local = 0.00038273561, global = 1.0233044e-05, cumulative = 0.00068177266
ExecutionTime = 0.84 s  ClockTime = 1 s
Inflow      : -1.1037889e-07 [kg/s]
Outflow     : -1.0184454e-07 [kg/s]
EnergyInflow  : -0.03261279 [W]
EnergyOutflow : -0.02153834 [W]
rho max/avg/min : 1.2015892 1.1074113 0.84782938
T   max/avg/min : 416.19492 322.29967 293.7137
P   max/avg/min : 101324.91 101316.16 101307.42
Prg max/avg/min : 101325 101324.31 101319.83
U   max/avg/min : 0.053569809 0.027937366 -0.017930469
Prg max-min : 5.1675407
 
Iteration Number = 23

DILUPBiCG:  Solving for Ux, Initial residual = 0.086214456, Final residual = 7.4304148e-05, No Iterations 2
DILUPBiCG:  Solving for Uy, Initial residual = 0.0059618952, Final residual = 2.0153092e-06, No Iterations 3
DILUPBiCG:  Solving for Uz, Initial residual = 0.076445076, Final residual = 1.7696579e-05, No Iterations 2
DILUPBiCG:  Solving for h, Initial residual = 0.017588638, Final residual = 7.6827403e-06, No Iterations 4
GAMG:  Solving for p_rgh, Initial residual = 0.0089530712, Final residual = 4.544388e-06, No Iterations 4
time step continuity errors : sum local = 0.00028844324, global = 5.6428539e-05, cumulative = 0.00073820119
ExecutionTime = 0.87 s  ClockTime = 1 s
Inflow      : 1.5781454e-07 [kg/s]
Outflow     : 2.0487591e-07 [kg/s]
EnergyInflow  : 0.046628231 [W]
EnergyOutflow : 0.072042034 [W]
rho max/avg/min : 1.2015873 1.1040402 0.8437211
T   max/avg/min : 418.22147 323.42897 293.71416
P   max/avg/min : 101324.91 101316.16 101307.42
Prg max/avg/min : 101325 101324.28 101319.78
U   max/avg/min : 0.06195733 0.031867188 -0.020945096
Prg max-min : 5.2257548
 
Iteration Number = 24

DILUPBiCG:  Solving for Ux, Initial residual = 0.084433574, Final residual = 8.0137588e-05, No Iterations 2
DILUPBiCG:  Solving for Uy, Initial residual = 0.00600321, Final residual = 6.550441e-07, No Iterations 3
DILUPBiCG:  Solving for Uz, Initial residual = 0.070409829, Final residual = 1.6578801e-05, No Iterations 2
DILUPBiCG:  Solving for h, Initial residual = 0.01660054, Final residual = 8.1440789e-06, No Iterations 4
GAMG:  Solving for p_rgh, Initial residual = 0.0087054994, Final residual = 3.8954388e-06, No Iterations 4
time step continuity errors : sum local = 0.000263327, global = -3.4481364e-05, cumulative = 0.00070371983
ExecutionTime = 0.91 s  ClockTime = 1 s
Inflow      : 6.3954683e-07 [kg/s]
Outflow     : 6.107894e-07 [kg/s]
EnergyInflow  : 0.18896191 [W]
EnergyOutflow : 0.19568975 [W]
rho max/avg/min : 1.201587 1.1007561 0.83979754
T   max/avg/min : 420.17544 324.53691 293.71423
P   max/avg/min : 101324.91 101316.16 101307.42
Prg max/avg/min : 101325 101324.26 101319.72
U   max/avg/min : 0.071079599 0.036051176 -0.023884606
Prg max-min : 5.2802485
 
Iteration Number = 25

DILUPBiCG:  Solving for Ux, Initial residual = 0.075575473, Final residual = 7.4834833e-05, No Iterations 2
DILUPBiCG:  Solving for Uy, Initial residual = 0.0063949897, Final residual = 5.0595703e-06, No Iterations 2
DILUPBiCG:  Solving for Uz, Initial residual = 0.064926772, Final residual = 1.6583993e-05, No Iterations 2
DILUPBiCG:  Solving for h, Initial residual = 0.01567784, Final residual = 9.1118875e-06, No Iterations 4
GAMG:  Solving for p_rgh, Initial residual = 0.0069148825, Final residual = 4.0085607e-06, No Iterations 4
time step continuity errors : sum local = 0.00029874699, global = 0.0001013137, cumulative = 0.00080503353
ExecutionTime = 0.95 s  ClockTime = 1 s
Inflow      : 1.0875911e-06 [kg/s]
Outflow     : 1.1720867e-06 [kg/s]
EnergyInflow  : 0.32134206 [W]
EnergyOutflow : 0.36606193 [W]
rho max/avg/min : 1.2015882 1.0975635 0.83604467
T   max/avg/min : 422.06153 325.62193 293.71395
P   max/avg/min : 101324.91 101316.17 101307.42
Prg max/avg/min : 101325 101324.24 101319.67
U   max/avg/min : 0.080939527 0.040460831 -0.026466076
Prg max-min : 5.3326617
 
Iteration Number = 26

DILUPBiCG:  Solving for Ux, Initial residual = 0.07081349, Final residual = 3.0946931e-06, No Iterations 3
DILUPBiCG:  Solving for Uy, Initial residual = 0.00775902, Final residual = 4.1750492e-07, No Iterations 3
DILUPBiCG:  Solving for Uz, Initial residual = 0.05968947, Final residual = 1.5247258e-05, No Iterations 2
DILUPBiCG:  Solving for h, Initial residual = 0.014822538, Final residual = 9.776132e-06, No Iterations 4
GAMG:  Solving for p_rgh, Initial residual = 0.005793315, Final residual = 3.9782755e-06, No Iterations 4
time step continuity errors : sum local = 0.00032506823, global = -2.7262286e-05, cumulative = 0.00077777125
ExecutionTime = 0.98 s  ClockTime = 1 s
Inflow      : 1.9114679e-06 [kg/s]
Outflow     : 1.8887312e-06 [kg/s]
EnergyInflow  : 0.56476652 [W]
EnergyOutflow : 0.58324354 [W]
rho max/avg/min : 1.2015903 1.0944654 0.83245007
T   max/avg/min : 423.88405 326.68289 293.71342
P   max/avg/min : 101324.91 101316.16 101307.42
Prg max/avg/min : 101325 101324.21 101319.62
U   max/avg/min : 0.091398739 0.04511339 -0.028786455
Prg max-min : 5.3839847
 
Iteration Number = 27

DILUPBiCG:  Solving for Ux, Initial residual = 0.068060263, Final residual = 4.0621887e-06, No Iterations 3
DILUPBiCG:  Solving for Uy, Initial residual = 0.0091871648, Final residual = 4.3182188e-07, No Iterations 3
DILUPBiCG:  Solving for Uz, Initial residual = 0.05644398, Final residual = 1.4802191e-05, No Iterations 2
DILUPBiCG:  Solving for h, Initial residual = 0.01404131, Final residual = 1.0116253e-05, No Iterations 4
GAMG:  Solving for p_rgh, Initial residual = 0.0066236481, Final residual = 3.6146069e-06, No Iterations 4
time step continuity errors : sum local = 0.0002795621, global = 6.6637127e-05, cumulative = 0.00084440837
ExecutionTime = 1.03 s  ClockTime = 1 s
Inflow      : 2.7199839e-06 [kg/s]
Outflow     : 2.7755592e-06 [kg/s]
EnergyInflow  : 0.80365241 [W]
EnergyOutflow : 0.8518293 [W]
rho max/avg/min : 1.2015964 1.091465 0.82900254
T   max/avg/min : 425.64684 327.71859 293.71194
P   max/avg/min : 101324.91 101316.17 101307.43
Prg max/avg/min : 101325 101324.19 101319.57
U   max/avg/min : 0.1024561 0.049945242 -0.030759191
Prg max-min : 5.4290075
 
Iteration Number = 28

DILUPBiCG:  Solving for Ux, Initial residual = 0.057951286, Final residual = 2.571201e-06, No Iterations 3
DILUPBiCG:  Solving for Uy, Initial residual = 0.010174818, Final residual = 1.0071924e-05, No Iterations 2
DILUPBiCG:  Solving for Uz, Initial residual = 0.051174491, Final residual = 1.2954907e-05, No Iterations 2
DILUPBiCG:  Solving for h, Initial residual = 0.01330206, Final residual = 9.9795055e-06, No Iterations 4
GAMG:  Solving for p_rgh, Initial residual = 0.0071371306, Final residual = 5.8266412e-06, No Iterations 4
time step continuity errors : sum local = 0.00038883754, global = 3.4135922e-05, cumulative = 0.0008785443
ExecutionTime = 1.07 s  ClockTime = 1 s
Inflow      : 3.853904e-06 [kg/s]
Outflow     : 3.8823733e-06 [kg/s]
EnergyInflow  : 1.138683 [W]
EnergyOutflow : 1.1865351 [W]
rho max/avg/min : 1.2016109 1.0885651 0.82569268
T   max/avg/min : 427.3531 328.728 293.70839
P   max/avg/min : 101324.91 101316.16 101307.43
Prg max/avg/min : 101325 101324.16 101319.52
U   max/avg/min : 0.11420366 0.054983773 -0.032392321
Prg max-min : 5.4794122
 
Iteration Number = 29

DILUPBiCG:  Solving for Ux, Initial residual = 0.055926638, Final residual = 3.5421445e-06, No Iterations 3
DILUPBiCG:  Solving for Uy, Initial residual = 0.010232124, Final residual = 7.5203854e-07, No Iterations 3
DILUPBiCG:  Solving for Uz, Initial residual = 0.050216189, Final residual = 1.3323911e-05, No Iterations 2
DILUPBiCG:  Solving for h, Initial residual = 0.012624082, Final residual = 1.1118348e-05, No Iterations 4
GAMG:  Solving for p_rgh, Initial residual = 0.0088613158, Final residual = 3.9016943e-06, No Iterations 4
time step continuity errors : sum local = 0.00022335556, global = 8.6513843e-05, cumulative = 0.00096505814
ExecutionTime = 1.1 s  ClockTime = 1 s
Inflow      : 5.1376471e-06 [kg/s]
Outflow     : 5.2097996e-06 [kg/s]
EnergyInflow  : 1.5179805 [W]
EnergyOutflow : 1.587556 [W]
rho max/avg/min : 1.2016348 1.0857695 0.82251164
T   max/avg/min : 429.00587 329.70973 293.70256
P   max/avg/min : 101324.91 101316.17 101307.43
Prg max/avg/min : 101325 101324.14 101319.48
U   max/avg/min : 0.12646211 0.060185143 -0.03386943
Prg max-min : 5.5201127
 
Iteration Number = 30

DILUPBiCG:  Solving for Ux, Initial residual = 0.050335829, Final residual = 2.5413554e-06, No Iterations 3
DILUPBiCG:  Solving for Uy, Initial residual = 0.0093750812, Final residual = 9.7128156e-07, No Iterations 3
DILUPBiCG:  Solving for Uz, Initial residual = 0.045261234, Final residual = 1.1579027e-05, No Iterations 2
DILUPBiCG:  Solving for h, Initial residual = 0.011996573, Final residual = 9.3456236e-06, No Iterations 4
GAMG:  Solving for p_rgh, Initial residual = 0.012780586, Final residual = 7.9542849e-06, No Iterations 4
time step continuity errors : sum local = 0.00040319338, global = 2.3665041e-05, cumulative = 0.00098872318
ExecutionTime = 1.14 s  ClockTime = 1 s
Inflow      : 6.7279723e-06 [kg/s]
Outflow     : 6.7477089e-06 [kg/s]
EnergyInflow  : 1.9878615 [W]
EnergyOutflow : 2.052238 [W]
rho max/avg/min : 1.2016428 1.0830772 0.81945214
T   max/avg/min : 430.60763 330.66373 293.70059
P   max/avg/min : 101324.91 101316.16 101307.43
Prg max/avg/min : 101325 101324.12 101319.43
U   max/avg/min : 0.13915178 0.065555341 -0.034777696
Prg max-min : 5.5677626
 
Iteration Number = 31

DILUPBiCG:  Solving for Ux, Initial residual = 0.049909048, Final residual = 4.6361945e-06, No Iterations 3
DILUPBiCG:  Solving for Uy, Initial residual = 0.0096564142, Final residual = 6.3780429e-07, No Iterations 3
DILUPBiCG:  Solving for Uz, Initial residual = 0.046415737, Final residual = 1.4193938e-05, No Iterations 2
DILUPBiCG:  Solving for h, Initial residual = 0.01139401, Final residual = 8.1827566e-06, No Iterations 4
GAMG:  Solving for p_rgh, Initial residual = 0.014368962, Final residual = 6.6002557e-06, No Iterations 4
time step continuity errors : sum local = 0.00029886818, global = -2.0645615e-05, cumulative = 0.00096807756
ExecutionTime = 1.18 s  ClockTime = 1 s
Inflow      : 8.5055279e-06 [kg/s]
Outflow     : 8.4883095e-06 [kg/s]
EnergyInflow  : 2.513062 [W]
EnergyOutflow : 2.5779767 [W]
rho max/avg/min : 1.2016452 1.0804921 0.81650771
T   max/avg/min : 432.16044 331.58867 293.70002
P   max/avg/min : 101324.91 101316.17 101307.43
Prg max/avg/min : 101325 101324.1 101319.4
U   max/avg/min : 0.15227443 0.071038723 -0.035347915
Prg max-min : 5.6046421
 
Iteration Number = 32

DILUPBiCG:  Solving for Ux, Initial residual = 0.047057705, Final residual = 2.6406562e-06, No Iterations 3
DILUPBiCG:  Solving for Uy, Initial residual = 0.011245366, Final residual = 6.5020825e-07, No Iterations 3
DILUPBiCG:  Solving for Uz, Initial residual = 0.04138639, Final residual = 1.2192634e-05, No Iterations 2
DILUPBiCG:  Solving for h, Initial residual = 0.010817772, Final residual = 8.1491957e-06, No Iterations 5
GAMG:  Solving for p_rgh, Initial residual = 0.016858494, Final residual = 9.6161791e-06, No Iterations 4
time step continuity errors : sum local = 0.00039144648, global = -3.5241944e-05, cumulative = 0.00093283562
ExecutionTime = 1.21 s  ClockTime = 1 s
Inflow      : 1.0573248e-05 [kg/s]
Outflow     : 1.0543856e-05 [kg/s]
EnergyInflow  : 3.123995 [W]
EnergyOutflow : 3.1979958 [W]
rho max/avg/min : 1.2016457 1.0780173 0.81367044
T   max/avg/min : 433.66741 332.48333 293.69985
P   max/avg/min : 101324.91 101316.16 101307.43
Prg max/avg/min : 101325 101324.08 101319.35
U   max/avg/min : 0.16576633 0.076683132 -0.035382922
Prg max-min : 5.6511637
 
Iteration Number = 33

DILUPBiCG:  Solving for Ux, Initial residual = 0.050465461, Final residual = 2.5963344e-05, No Iterations 3
DILUPBiCG:  Solving for Uy, Initial residual = 0.013127458, Final residual = 8.7541924e-07, No Iterations 3
DILUPBiCG:  Solving for Uz, Initial residual = 0.044287393, Final residual = 1.6922494e-05, No Iterations 2
DILUPBiCG:  Solving for h, Initial residual = 0.010274015, Final residual = 6.0601588e-06, No Iterations 5
GAMG:  Solving for p_rgh, Initial residual = 0.02327448, Final residual = 1.1852765e-05, No Iterations 4
time step continuity errors : sum local = 0.00043662295, global = -7.8094697e-05, cumulative = 0.00085474092
ExecutionTime = 1.25 s  ClockTime = 1 s
Inflow      : 1.2893796e-05 [kg/s]
Outflow     : 1.2828665e-05 [kg/s]
EnergyInflow  : 3.8096293 [W]
EnergyOutflow : 3.8873828 [W]
rho max/avg/min : 1.2016459 1.0756545 0.81093669
T   max/avg/min : 435.12932 333.34693 293.69962
P   max/avg/min : 101324.91 101316.17 101307.43
Prg max/avg/min : 101325 101324.06 101319.31
U   max/avg/min : 0.17956559 0.082436034 -0.035354429
Prg max-min : 5.6849954
 
Iteration Number = 34

DILUPBiCG:  Solving for Ux, Initial residual = 0.045889629, Final residual = 5.3789532e-06, No Iterations 3
DILUPBiCG:  Solving for Uy, Initial residual = 0.014556361, Final residual = 1.4333521e-05, No Iterations 2
DILUPBiCG:  Solving for Uz, Initial residual = 0.039468386, Final residual = 1.4827286e-05, No Iterations 2
DILUPBiCG:  Solving for h, Initial residual = 0.0097457804, Final residual = 6.6943005e-06, No Iterations 5
GAMG:  Solving for p_rgh, Initial residual = 0.023728918, Final residual = 8.004269e-06, No Iterations 4
time step continuity errors : sum local = 0.00027342899, global = -4.0797417e-05, cumulative = 0.00081394351
ExecutionTime = 1.28 s  ClockTime = 1 s
Inflow      : 1.5254509e-05 [kg/s]
Outflow     : 1.5220484e-05 [kg/s]
EnergyInflow  : 4.5071307 [W]
EnergyOutflow : 4.6093738 [W]
rho max/avg/min : 1.2016459 1.0734016 0.80830091
T   max/avg/min : 436.54826 334.17973 293.69935
P   max/avg/min : 101324.91 101316.16 101307.43
Prg max/avg/min : 101325 101324.04 101319.27
U   max/avg/min : 0.19361041 0.088211343 -0.034707286
Prg max-min : 5.726859
 
Iteration Number = 35

DILUPBiCG:  Solving for Ux, Initial residual = 0.055758516, Final residual = 3.0689878e-05, No Iterations 3
DILUPBiCG:  Solving for Uy, Initial residual = 0.015712056, Final residual = 1.2555889e-06, No Iterations 3
DILUPBiCG:  Solving for Uz, Initial residual = 0.040198547, Final residual = 1.8007594e-05, No Iterations 2
DILUPBiCG:  Solving for h, Initial residual = 0.0092272138, Final residual = 5.5577858e-06, No Iterations 5
GAMG:  Solving for p_rgh, Initial residual = 0.025185048, Final residual = 6.5435553e-06, No Iterations 4
time step continuity errors : sum local = 0.00021111978, global = 3.4025123e-06, cumulative = 0.00081734602
ExecutionTime = 1.33 s  ClockTime = 2 s
Inflow      : 1.8029007e-05 [kg/s]
Outflow     : 1.8031844e-05 [kg/s]
EnergyInflow  : 5.3268899 [W]
EnergyOutflow : 5.4566217 [W]
rho max/avg/min : 1.2016459 1.0712638 0.80575807
T   max/avg/min : 437.92592 334.97999 293.69906
P   max/avg/min : 101324.91 101316.16 101307.43
Prg max/avg/min : 101325 101324.02 101319.24
U   max/avg/min : 0.20791792 0.094136284 -0.033277463
Prg max-min : 5.763477
 
Iteration Number = 36

DILUPBiCG:  Solving for Ux, Initial residual = 0.044815187, Final residual = 6.8450443e-06, No Iterations 3
DILUPBiCG:  Solving for Uy, Initial residual = 0.016630388, Final residual = 1.279738e-05, No Iterations 3
DILUPBiCG:  Solving for Uz, Initial residual = 0.038397531, Final residual = 1.9112709e-05, No Iterations 2
DILUPBiCG:  Solving for h, Initial residual = 0.0087217117, Final residual = 5.5642489e-06, No Iterations 5
GAMG:  Solving for p_rgh, Initial residual = 0.02907029, Final residual = 8.915866e-06, No Iterations 4
time step continuity errors : sum local = 0.00027029515, global = -5.7696448e-05, cumulative = 0.00075964957
ExecutionTime = 1.36 s  ClockTime = 2 s
Inflow      : 2.0574621e-05 [kg/s]
Outflow     : 2.0526502e-05 [kg/s]
EnergyInflow  : 6.0790228 [W]
EnergyOutflow : 6.2107389 [W]
rho max/avg/min : 1.2016459 1.0692396 0.8033036
T   max/avg/min : 439.26399 335.7478 293.6987
P   max/avg/min : 101324.91 101316.16 101307.43
Prg max/avg/min : 101325 101324.01 101319.2
U   max/avg/min : 0.22238732 0.099938536 -0.032145541
Prg max-min : 5.7963893
 
Iteration Number = 37

DILUPBiCG:  Solving for Ux, Initial residual = 0.052014854, Final residual = 2.8575009e-06, No Iterations 3
DILUPBiCG:  Solving for Uy, Initial residual = 0.016752712, Final residual = 7.5084269e-07, No Iterations 3
DILUPBiCG:  Solving for Uz, Initial residual = 0.034557303, Final residual = 1.6128539e-05, No Iterations 2
DILUPBiCG:  Solving for h, Initial residual = 0.0082412164, Final residual = 4.5197636e-06, No Iterations 5
GAMG:  Solving for p_rgh, Initial residual = 0.03275289, Final residual = 1.4694947e-05, No Iterations 4
time step continuity errors : sum local = 0.00043413959, global = 5.4906127e-05, cumulative = 0.0008145557
ExecutionTime = 1.4 s  ClockTime = 2 s
Inflow      : 2.340692e-05 [kg/s]
Outflow     : 2.3452712e-05 [kg/s]
EnergyInflow  : 6.9158601 [W]
EnergyOutflow : 7.0938215 [W]
rho max/avg/min : 1.2016459 1.0673272 0.80093343
T   max/avg/min : 440.5639 336.4832 293.69839
P   max/avg/min : 101324.91 101316.16 101307.42
Prg max/avg/min : 101325 101323.98 101319.16
U   max/avg/min : 0.2370714 0.10586127 -0.030006681
Prg max-min : 5.8392684
 
Iteration Number = 38

DILUPBiCG:  Solving for Ux, Initial residual = 0.035482559, Final residual = 2.0790727e-06, No Iterations 3
DILUPBiCG:  Solving for Uy, Initial residual = 0.016696849, Final residual = 1.2951239e-06, No Iterations 3
DILUPBiCG:  Solving for Uz, Initial residual = 0.036257574, Final residual = 2.084145e-05, No Iterations 2
DILUPBiCG:  Solving for h, Initial residual = 0.0077562684, Final residual = 6.1023336e-06, No Iterations 8
GAMG:  Solving for p_rgh, Initial residual = 0.032706738, Final residual = 6.8162556e-06, No Iterations 4
time step continuity errors : sum local = 0.00018959391, global = -6.2368203e-05, cumulative = 0.00075218749
ExecutionTime = 1.43 s  ClockTime = 2 s
Inflow      : 2.650325e-05 [kg/s]
Outflow     : 2.6451235e-05 [kg/s]
EnergyInflow  : 7.8307086 [W]
EnergyOutflow : 7.9990461 [W]
rho max/avg/min : 1.2016459 1.0655254 0.79864391
T   max/avg/min : 441.82686 337.18639 293.69797
P   max/avg/min : 101324.91 101316.16 101307.42
Prg max/avg/min : 101325 101323.97 101319.13
U   max/avg/min : 0.25195759 0.11185249 -0.027430925
Prg max-min : 5.8715114
 
Iteration Number = 39

DILUPBiCG:  Solving for Ux, Initial residual = 0.043326864, Final residual = 4.2987361e-05, No Iterations 2
DILUPBiCG:  Solving for Uy, Initial residual = 0.015062121, Final residual = 2.8751467e-06, No Iterations 3
DILUPBiCG:  Solving for Uz, Initial residual = 0.03252297, Final residual = 1.7250209e-05, No Iterations 2
DILUPBiCG:  Solving for h, Initial residual = 0.0072858927, Final residual = 4.7602726e-06, No Iterations 7
GAMG:  Solving for p_rgh, Initial residual = 0.035795363, Final residual = 1.9570316e-05, No Iterations 3
time step continuity errors : sum local = 0.00050949782, global = 0.00018020197, cumulative = 0.00093238946
ExecutionTime = 1.47 s  ClockTime = 2 s
Inflow      : 2.9118128e-05 [kg/s]
Outflow     : 2.9268417e-05 [kg/s]
EnergyInflow  : 8.6033062 [W]
EnergyOutflow : 8.8505849 [W]
rho max/avg/min : 1.2016459 1.0638319 0.79643247
T   max/avg/min : 443.05367 337.85752 293.69758
P   max/avg/min : 101324.91 101316.16 101307.42
Prg max/avg/min : 101325 101323.95 101319.09
U   max/avg/min : 0.26700056 0.11768739 -0.024871463
Prg max-min : 5.9055982
 
Iteration Number = 40

DILUPBiCG:  Solving for Ux, Initial residual = 0.030102526, Final residual = 2.0905894e-06, No Iterations 3
DILUPBiCG:  Solving for Uy, Initial residual = 0.014360378, Final residual = 1.7788848e-06, No Iterations 3
DILUPBiCG:  Solving for Uz, Initial residual = 0.030256545, Final residual = 1.5561087e-05, No Iterations 2
DILUPBiCG:  Solving for h, Initial residual = 0.0068483982, Final residual = 6.7565093e-06, No Iterations 7
GAMG:  Solving for p_rgh, Initial residual = 0.033136753, Final residual = 3.2766759e-05, No Iterations 3
time step continuity errors : sum local = 0.00079740112, global = 8.4928606e-05, cumulative = 0.0010173181
ExecutionTime = 1.51 s  ClockTime = 2 s
Inflow      : 3.2336083e-05 [kg/s]
Outflow     : 3.2406913e-05 [kg/s]
EnergyInflow  : 9.5540901 [W]
EnergyOutflow : 9.797303 [W]
rho max/avg/min : 1.2016459 1.0622377 0.794294
T   max/avg/min : 444.24649 338.49863 293.69718
P   max/avg/min : 101324.91 101316.15 101307.4
Prg max/avg/min : 101325 101323.93 101319.05
U   max/avg/min : 0.28230838 0.12375998 -0.021014713
Prg max-min : 5.9520227
 
Iteration Number = 41

DILUPBiCG:  Solving for Ux, Initial residual = 0.041879515, Final residual = 3.4547302e-05, No Iterations 2
DILUPBiCG:  Solving for Uy, Initial residual = 0.015880239, Final residual = 1.5327639e-06, No Iterations 3
DILUPBiCG:  Solving for Uz, Initial residual = 0.033087124, Final residual = 1.924356e-05, No Iterations 2
DILUPBiCG:  Solving for h, Initial residual = 0.0063974081, Final residual = 6.3134737e-06, No Iterations 6
GAMG:  Solving for p_rgh, Initial residual = 0.033930072, Final residual = 3.0944425e-05, No Iterations 3
time step continuity errors : sum local = 0.00069606609, global = -0.00013324213, cumulative = 0.00088407594
ExecutionTime = 1.54 s  ClockTime = 2 s
Inflow      : 3.5595117e-05 [kg/s]
Outflow     : 3.5483993e-05 [kg/s]
EnergyInflow  : 10.517011 [W]
EnergyOutflow : 10.725718 [W]
rho max/avg/min : 1.2016459 1.0607415 0.79222837
T   max/avg/min : 445.40474 339.10987 293.6967
P   max/avg/min : 101324.91 101316.15 101307.41
Prg max/avg/min : 101325 101323.92 101319.02
U   max/avg/min : 0.2978215 0.12982629 -0.01634577
Prg max-min : 5.977678
 
Iteration Number = 42

DILUPBiCG:  Solving for Ux, Initial residual = 0.030072568, Final residual = 5.9378135e-07, No Iterations 4
DILUPBiCG:  Solving for Uy, Initial residual = 0.017056819, Final residual = 9.4361563e-07, No Iterations 3
DILUPBiCG:  Solving for Uz, Initial residual = 0.028195928, Final residual = 1.46978e-05, No Iterations 2
DILUPBiCG:  Solving for h, Initial residual = 0.0059789534, Final residual = 1.2616658e-06, No Iterations 8
GAMG:  Solving for p_rgh, Initial residual = 0.030945023, Final residual = 1.9640921e-05, No Iterations 3
time step continuity errors : sum local = 0.00041207283, global = -8.5279934e-05, cumulative = 0.00079879601
ExecutionTime = 1.58 s  ClockTime = 2 s
Inflow      : 3.8287473e-05 [kg/s]
Outflow     : 3.8216349e-05 [kg/s]
EnergyInflow  : 11.312501 [W]
EnergyOutflow : 11.551218 [W]
rho max/avg/min : 1.2016459 1.059338 0.79023036
T   max/avg/min : 446.53091 339.6923 293.69623
P   max/avg/min : 101324.91 101316.15 101307.4
Prg max/avg/min : 101325 101323.91 101318.99
U   max/avg/min : 0.31343903 0.13564651 -0.011610702
Prg max-min : 6.0104866
 
Iteration Number = 43

DILUPBiCG:  Solving for Ux, Initial residual = 0.036391212, Final residual = 2.9245062e-05, No Iterations 2
DILUPBiCG:  Solving for Uy, Initial residual = 0.018183468, Final residual = 1.1697386e-06, No Iterations 3
DILUPBiCG:  Solving for Uz, Initial residual = 0.026498079, Final residual = 1.3468404e-05, No Iterations 2
DILUPBiCG:  Solving for h, Initial residual = 0.0056139476, Final residual = 2.6833191e-06, No Iterations 6
GAMG:  Solving for p_rgh, Initial residual = 0.038869391, Final residual = 1.8716824e-05, No Iterations 3
time step continuity errors : sum local = 0.00037279043, global = 9.8356136e-05, cumulative = 0.00089715214
ExecutionTime = 1.62 s  ClockTime = 2 s
Inflow      : 4.0823656e-05 [kg/s]
Outflow     : 4.0905685e-05 [kg/s]
EnergyInflow  : 12.061847 [W]
EnergyOutflow : 12.363491 [W]
rho max/avg/min : 1.2016458 1.0580198 0.78829798
T   max/avg/min : 447.62549 340.2476 293.69576
P   max/avg/min : 101324.91 101316.15 101307.4
Prg max/avg/min : 101325 101323.89 101318.95
U   max/avg/min : 0.32922763 0.14142341 -0.0056483403
Prg max-min : 6.0431207
 
Iteration Number = 44

DILUPBiCG:  Solving for Ux, Initial residual = 0.030554416, Final residual = 1.5152294e-06, No Iterations 3
DILUPBiCG:  Solving for Uy, Initial residual = 0.019742777, Final residual = 1.8860034e-06, No Iterations 3
DILUPBiCG:  Solving for Uz, Initial residual = 0.025433321, Final residual = 1.2944448e-05, No Iterations 2
DILUPBiCG:  Solving for h, Initial residual = 0.005269004, Final residual = 3.4955552e-06, No Iterations 5
GAMG:  Solving for p_rgh, Initial residual = 0.024894418, Final residual = 1.8393136e-05, No Iterations 3
time step continuity errors : sum local = 0.00035400414, global = -9.6712977e-05, cumulative = 0.00080043917
ExecutionTime = 1.66 s  ClockTime = 2 s
Inflow      : 4.3282226e-05 [kg/s]
Outflow     : 4.3201567e-05 [kg/s]
EnergyInflow  : 12.788262 [W]
EnergyOutflow : 13.058461 [W]
rho max/avg/min : 1.2016458 1.0567841 0.78642739
T   max/avg/min : 448.69019 340.77628 293.69526
P   max/avg/min : 101324.91 101316.14 101307.39
Prg max/avg/min : 101325 101323.88 101318.92
U   max/avg/min : 0.34513894 0.14711073 0
Prg max-min : 6.0720902
 
Iteration Number = 45

DILUPBiCG:  Solving for Ux, Initial residual = 0.035725173, Final residual = 1.6964265e-06, No Iterations 3
DILUPBiCG:  Solving for Uy, Initial residual = 0.021090592, Final residual = 1.6038972e-06, No Iterations 3
DILUPBiCG:  Solving for Uz, Initial residual = 0.023437272, Final residual = 1.1609826e-05, No Iterations 2
DILUPBiCG:  Solving for h, Initial residual = 0.0049490676, Final residual = 2.7245019e-06, No Iterations 5
GAMG:  Solving for p_rgh, Initial residual = 0.020892032, Final residual = 6.3584321e-06, No Iterations 4
time step continuity errors : sum local = 0.00012011599, global = -4.1741916e-05, cumulative = 0.00075869725
ExecutionTime = 1.69 s  ClockTime = 2 s
Inflow      : 4.5426261e-05 [kg/s]
Outflow     : 4.5391449e-05 [kg/s]
EnergyInflow  : 13.421743 [W]
EnergyOutflow : 13.720763 [W]
rho max/avg/min : 1.2016458 1.0556243 0.78461768
T   max/avg/min : 449.72508 341.27993 293.69475
P   max/avg/min : 101324.91 101316.15 101307.4
Prg max/avg/min : 101325 101323.87 101318.9
U   max/avg/min : 0.36113568 0.15260011 0
Prg max-min : 6.0967085
 
Iteration Number = 46

DILUPBiCG:  Solving for Ux, Initial residual = 0.030301048, Final residual = 1.3109649e-06, No Iterations 3
DILUPBiCG:  Solving for Uy, Initial residual = 0.022026698, Final residual = 1.6010957e-06, No Iterations 3
DILUPBiCG:  Solving for Uz, Initial residual = 0.020916246, Final residual = 9.5485189e-06, No Iterations 2
DILUPBiCG:  Solving for h, Initial residual = 0.0046554229, Final residual = 1.1010164e-06, No Iterations 6
GAMG:  Solving for p_rgh, Initial residual = 0.019472369, Final residual = 1.2397989e-05, No Iterations 3
time step continuity errors : sum local = 0.00022952797, global = 8.323786e-05, cumulative = 0.00084193511
ExecutionTime = 1.73 s  ClockTime = 2 s
Inflow      : 4.7295934e-05 [kg/s]
Outflow     : 4.7365355e-05 [kg/s]
EnergyInflow  : 13.974161 [W]
EnergyOutflow : 14.317874 [W]
rho max/avg/min : 1.2016458 1.054535 0.78286668
T   max/avg/min : 450.73096 341.7598 293.69422
P   max/avg/min : 101324.91 101316.15 101307.39
Prg max/avg/min : 101325 101323.86 101318.87
U   max/avg/min : 0.37743171 0.15795031 0
Prg max-min : 6.1263885
 
Iteration Number = 47

DILUPBiCG:  Solving for Ux, Initial residual = 0.03043987, Final residual = 1.2940814e-06, No Iterations 3
DILUPBiCG:  Solving for Uy, Initial residual = 0.022920115, Final residual = 4.5392054e-06, No Iterations 3
DILUPBiCG:  Solving for Uz, Initial residual = 0.020118237, Final residual = 9.3637331e-06, No Iterations 2
DILUPBiCG:  Solving for h, Initial residual = 0.0043809737, Final residual = 2.3765346e-06, No Iterations 5
GAMG:  Solving for p_rgh, Initial residual = 0.017515493, Final residual = 1.3829957e-05, No Iterations 3
time step continuity errors : sum local = 0.00025261334, global = -0.00015094798, cumulative = 0.00069098713
ExecutionTime = 1.76 s  ClockTime = 2 s
Inflow      : 4.9179012e-05 [kg/s]
Outflow     : 4.9053122e-05 [kg/s]
EnergyInflow  : 14.530539 [W]
EnergyOutflow : 14.829028 [W]
rho max/avg/min : 1.2016458 1.053511 0.7811719
T   max/avg/min : 451.70882 342.21709 293.69368
P   max/avg/min : 101324.91 101316.15 101307.39
Prg max/avg/min : 101325 101323.85 101318.85
U   max/avg/min : 0.39374718 0.1631567 0
Prg max-min : 6.1487219
 
Iteration Number = 48

DILUPBiCG:  Solving for Ux, Initial residual = 0.028568389, Final residual = 3.0476423e-06, No Iterations 3
DILUPBiCG:  Solving for Uy, Initial residual = 0.022228127, Final residual = 1.7477507e-06, No Iterations 3
DILUPBiCG:  Solving for Uz, Initial residual = 0.017982105, Final residual = 8.0749622e-06, No Iterations 2
DILUPBiCG:  Solving for h, Initial residual = 0.0041245437, Final residual = 2.3889897e-06, No Iterations 5
GAMG:  Solving for p_rgh, Initial residual = 0.015773311, Final residual = 1.3622104e-05, No Iterations 3
time step continuity errors : sum local = 0.00024579933, global = 6.3644761e-05, cumulative = 0.00075463189
ExecutionTime = 1.8 s  ClockTime = 2 s
Inflow      : 5.022986e-05 [kg/s]
Outflow     : 5.0282939e-05 [kg/s]
EnergyInflow  : 14.841025 [W]
EnergyOutflow : 15.203602 [W]
rho max/avg/min : 1.2016458 1.0525481 0.77953154
T   max/avg/min : 452.65936 342.65286 293.69312
P   max/avg/min : 101324.91 101316.15 101307.4
Prg max/avg/min : 101325 101323.85 101318.83
U   max/avg/min : 0.41005044 0.16803907 0
Prg max-min : 6.1645909
 
Iteration Number = 49

DILUPBiCG:  Solving for Ux, Initial residual = 0.028352735, Final residual = 2.0551354e-06, No Iterations 3
DILUPBiCG:  Solving for Uy, Initial residual = 0.024616831, Final residual = 7.5068786e-06, No Iterations 3
DILUPBiCG:  Solving for Uz, Initial residual = 0.014884958, Final residual = 5.8600576e-06, No Iterations 2
DILUPBiCG:  Solving for h, Initial residual = 0.0038965042, Final residual = 1.8706993e-06, No Iterations 5
GAMG:  Solving for p_rgh, Initial residual = 0.014855713, Final residual = 1.4851912e-05, No Iterations 3
time step continuity errors : sum local = 0.00026623233, global = -9.2881604e-06, cumulative = 0.00074534373
ExecutionTime = 1.84 s  ClockTime = 2 s
Inflow      : 5.1393187e-05 [kg/s]
Outflow     : 5.138544e-05 [kg/s]
EnergyInflow  : 15.184744 [W]
EnergyOutflow : 15.539647 [W]
rho max/avg/min : 1.2016458 1.051642 0.77794291
T   max/avg/min : 453.58377 343.06816 293.69257
P   max/avg/min : 101324.91 101316.15 101307.39
Prg max/avg/min : 101325 101323.84 101318.8
U   max/avg/min : 0.42634517 0.17276639 0
Prg max-min : 6.194978
 
Iteration Number = 50

DILUPBiCG:  Solving for Ux, Initial residual = 0.025288705, Final residual = 2.2430918e-05, No Iterations 2
DILUPBiCG:  Solving for Uy, Initial residual = 0.024499944, Final residual = 8.0290783e-06, No Iterations 3
DILUPBiCG:  Solving for Uz, Initial residual = 0.015448305, Final residual = 6.8557709e-06, No Iterations 2
DILUPBiCG:  Solving for h, Initial residual = 0.0036835561, Final residual = 2.9631851e-06, No Iterations 5
GAMG:  Solving for p_rgh, Initial residual = 0.014302121, Final residual = 4.548258e-06, No Iterations 4
time step continuity errors : sum local = 8.140259e-05, global = -5.4587166e-05, cumulative = 0.00069075656
ExecutionTime = 1.87 s  ClockTime = 2 s
Inflow      : 5.2313322e-05 [kg/s]
Outflow     : 5.2267796e-05 [kg/s]
EnergyInflow  : 15.456609 [W]
EnergyOutflow : 15.809932 [W]
rho max/avg/min : 1.2016458 1.0507891 0.77640471
T   max/avg/min : 454.48237 343.46389 293.69201
P   max/avg/min : 101324.91 101316.15 101307.4
Prg max/avg/min : 101325 101323.84 101318.79
U   max/avg/min : 0.44255492 0.17737922 0
Prg max-min : 6.2111816
 
Iteration Number = 51

DILUPBiCG:  Solving for Ux, Initial residual = 0.027239214, Final residual = 1.7646174e-06, No Iterations 3
DILUPBiCG:  Solving for Uy, Initial residual = 0.025106265, Final residual = 9.7323879e-06, No Iterations 3
DILUPBiCG:  Solving for Uz, Initial residual = 0.013257726, Final residual = 5.3585831e-06, No Iterations 2
DILUPBiCG:  Solving for h, Initial residual = 0.0034844584, Final residual = 3.4288797e-06, No Iterations 5
GAMG:  Solving for p_rgh, Initial residual = 0.013756625, Final residual = 1.1492997e-05, No Iterations 3
time step continuity errors : sum local = 0.0002044398, global = 8.715741e-05, cumulative = 0.00077791397
ExecutionTime = 1.91 s  ClockTime = 2 s
Inflow      : 5.3031301e-05 [kg/s]
Outflow     : 5.3103991e-05 [kg/s]
EnergyInflow  : 15.668745 [W]
EnergyOutflow : 16.066165 [W]
rho max/avg/min : 1.2016458 1.0499871 0.77491526
T   max/avg/min : 455.35595 343.84068 293.69142
P   max/avg/min : 101324.91 101316.15 101307.4
Prg max/avg/min : 101325 101323.83 101318.76
U   max/avg/min : 0.45866756 0.18180854 0
Prg max-min : 6.235184
 
Iteration Number = 52

DILUPBiCG:  Solving for Ux, Initial residual = 0.022440048, Final residual = 1.8308071e-05, No Iterations 2
DILUPBiCG:  Solving for Uy, Initial residual = 0.023560487, Final residual = 9.2465678e-06, No Iterations 3
DILUPBiCG:  Solving for Uz, Initial residual = 0.013149877, Final residual = 5.6512204e-06, No Iterations 2
DILUPBiCG:  Solving for h, Initial residual = 0.0033018609, Final residual = 4.1972482e-07, No Iterations 6
GAMG:  Solving for p_rgh, Initial residual = 0.013283867, Final residual = 9.7147148e-06, No Iterations 4
time step continuity errors : sum local = 0.00017282751, global = 3.6050082e-05, cumulative = 0.00081396405
ExecutionTime = 1.95 s  ClockTime = 2 s
Inflow      : 5.3776784e-05 [kg/s]
Outflow     : 5.3806849e-05 [kg/s]
EnergyInflow  : 15.889007 [W]
EnergyOutflow : 16.282656 [W]
rho max/avg/min : 1.2016458 1.0492338 0.77347171
T   max/avg/min : 456.20578 344.19902 293.69086
P   max/avg/min : 101324.91 101316.15 101307.4
Prg max/avg/min : 101325 101323.82 101318.74
U   max/avg/min : 0.47470099 0.18616416 0
Prg max-min : 6.2560845
 
Iteration Number = 53

DILUPBiCG:  Solving for Ux, Initial residual = 0.025164733, Final residual = 2.0290983e-05, No Iterations 2
DILUPBiCG:  Solving for Uy, Initial residual = 0.024098406, Final residual = 1.6065078e-06, No Iterations 3
DILUPBiCG:  Solving for Uz, Initial residual = 0.012203565, Final residual = 5.111819e-06, No Iterations 2
DILUPBiCG:  Solving for h, Initial residual = 0.0031296426, Final residual = 2.967788e-06, No Iterations 5
GAMG:  Solving for p_rgh, Initial residual = 0.012718098, Final residual = 3.1251697e-06, No Iterations 4
time step continuity errors : sum local = 5.5404047e-05, global = -3.5650515e-05, cumulative = 0.00077831354
ExecutionTime = 1.98 s  ClockTime = 2 s
Inflow      : 5.4430033e-05 [kg/s]
Outflow     : 5.44003e-05 [kg/s]
EnergyInflow  : 16.082017 [W]
EnergyOutflow : 16.46657 [W]
rho max/avg/min : 1.2016458 1.0485258 0.7720739
T   max/avg/min : 457.03172 344.54 293.69025
P   max/avg/min : 101324.91 101316.15 101307.4
Prg max/avg/min : 101325 101323.81 101318.72
U   max/avg/min : 0.49056689 0.19035211 0
Prg max-min : 6.2726808
 
Iteration Number = 54

DILUPBiCG:  Solving for Ux, Initial residual = 0.020949055, Final residual = 1.6043029e-05, No Iterations 2
DILUPBiCG:  Solving for Uy, Initial residual = 0.022255099, Final residual = 5.7972897e-06, No Iterations 4
DILUPBiCG:  Solving for Uz, Initial residual = 0.011591346, Final residual = 4.7175668e-06, No Iterations 2
DILUPBiCG:  Solving for h, Initial residual = 0.0029712315, Final residual = 2.5824096e-06, No Iterations 5
GAMG:  Solving for p_rgh, Initial residual = 0.012126008, Final residual = 5.6190796e-06, No Iterations 4
time step continuity errors : sum local = 9.9433569e-05, global = 2.0245954e-05, cumulative = 0.00079855949
ExecutionTime = 2.02 s  ClockTime = 2 s
Inflow      : 5.4883653e-05 [kg/s]
Outflow     : 5.4900538e-05 [kg/s]
EnergyInflow  : 16.216045 [W]
EnergyOutflow : 16.622748 [W]
rho max/avg/min : 1.2016458 1.0478614 0.77071986
T   max/avg/min : 457.83468 344.86402 293.6897
P   max/avg/min : 101324.91 101316.15 101307.4
Prg max/avg/min : 101325 101323.81 101318.7
U   max/avg/min : 0.50625645 0.19440394 0
Prg max-min : 6.2939344
 
Iteration Number = 55

DILUPBiCG:  Solving for Ux, Initial residual = 0.022406281, Final residual = 1.8895414e-05, No Iterations 2
DILUPBiCG:  Solving for Uy, Initial residual = 0.022967977, Final residual = 3.4172417e-06, No Iterations 3
DILUPBiCG:  Solving for Uz, Initial residual = 0.010745747, Final residual = 5.274921e-06, No Iterations 2
DILUPBiCG:  Solving for h, Initial residual = 0.0028249018, Final residual = 2.3021128e-06, No Iterations 5
GAMG:  Solving for p_rgh, Initial residual = 0.011542379, Final residual = 5.2041115e-06, No Iterations 4
time step continuity errors : sum local = 9.1961891e-05, global = -7.6151804e-06, cumulative = 0.00079094431
ExecutionTime = 2.06 s  ClockTime = 2 s
Inflow      : 5.5411368e-05 [kg/s]
Outflow     : 5.5405017e-05 [kg/s]
EnergyInflow  : 16.371965 [W]
EnergyOutflow : 16.78 [W]
rho max/avg/min : 1.2016458 1.0472385 0.76940814
T   max/avg/min : 458.61521 345.1717 293.6891
P   max/avg/min : 101324.91 101316.15 101307.4
Prg max/avg/min : 101325 101323.8 101318.68
U   max/avg/min : 0.52174297 0.19837043 0
Prg max-min : 6.3123012
 
Iteration Number = 56

DILUPBiCG:  Solving for Ux, Initial residual = 0.019742428, Final residual = 1.5967694e-05, No Iterations 2
DILUPBiCG:  Solving for Uy, Initial residual = 0.021420917, Final residual = 1.5030328e-06, No Iterations 3
DILUPBiCG:  Solving for Uz, Initial residual = 0.010620414, Final residual = 4.368515e-06, No Iterations 2
DILUPBiCG:  Solving for h, Initial residual = 0.0026866374, Final residual = 1.9106337e-06, No Iterations 5
GAMG:  Solving for p_rgh, Initial residual = 0.011015382, Final residual = 6.4599206e-06, No Iterations 4
time step continuity errors : sum local = 0.00011406639, global = 1.0924198e-05, cumulative = 0.00080186851
ExecutionTime = 2.1 s  ClockTime = 2 s
Inflow      : 5.577187e-05 [kg/s]
Outflow     : 5.5780981e-05 [kg/s]
EnergyInflow  : 16.478479 [W]
EnergyOutflow : 16.89907 [W]
rho max/avg/min : 1.2016458 1.046655 0.76813724
T   max/avg/min : 459.374 345.46366 293.68856
P   max/avg/min : 101324.91 101316.16 101307.4
Prg max/avg/min : 101325 101323.8 101318.67
U   max/avg/min : 0.53704367 0.20220751 0
Prg max-min : 6.3300329
 
Iteration Number = 57

DILUPBiCG:  Solving for Ux, Initial residual = 0.020299213, Final residual = 1.6513029e-05, No Iterations 2
DILUPBiCG:  Solving for Uy, Initial residual = 0.02134738, Final residual = 1.6618946e-05, No Iterations 3
DILUPBiCG:  Solving for Uz, Initial residual = 0.0096021045, Final residual = 7.9784663e-06, No Iterations 2
DILUPBiCG:  Solving for h, Initial residual = 0.0025583604, Final residual = 2.0284181e-06, No Iterations 5
GAMG:  Solving for p_rgh, Initial residual = 0.010479941, Final residual = 6.7228719e-06, No Iterations 4
time step continuity errors : sum local = 0.00011842951, global = -8.6885173e-06, cumulative = 0.00079317999
ExecutionTime = 2.15 s  ClockTime = 2 s
Inflow      : 5.6201869e-05 [kg/s]
Outflow     : 5.6194623e-05 [kg/s]
EnergyInflow  : 16.605528 [W]
EnergyOutflow : 17.029088 [W]
rho max/avg/min : 1.2016458 1.046109 0.76690658
T   max/avg/min : 460.11117 345.74051 293.68799
P   max/avg/min : 101324.91 101316.15 101307.4
Prg max/avg/min : 101325 101323.79 101318.65
U   max/avg/min : 0.55240031 0.20597284 0
Prg max-min : 6.3499639
 
Iteration Number = 58

DILUPBiCG:  Solving for Ux, Initial residual = 0.018367387, Final residual = 1.5566659e-05, No Iterations 2
DILUPBiCG:  Solving for Uy, Initial residual = 0.020771533, Final residual = 1.0713582e-06, No Iterations 3
DILUPBiCG:  Solving for Uz, Initial residual = 0.009765455, Final residual = 4.1079672e-06, No Iterations 2
DILUPBiCG:  Solving for h, Initial residual = 0.0024366336, Final residual = 1.9123321e-06, No Iterations 5
GAMG:  Solving for p_rgh, Initial residual = 0.0099711385, Final residual = 4.384777e-06, No Iterations 4
time step continuity errors : sum local = 7.7262264e-05, global = -2.2455889e-05, cumulative = 0.0007707241
ExecutionTime = 2.19 s  ClockTime = 2 s
Inflow      : 5.6525098e-05 [kg/s]
Outflow     : 5.650637e-05 [kg/s]
EnergyInflow  : 16.70103 [W]
EnergyOutflow : 17.128773 [W]
rho max/avg/min : 1.2016458 1.0455985 0.76571462
T   max/avg/min : 460.82739 346.00283 293.68747
P   max/avg/min : 101324.91 101316.16 101307.4
Prg max/avg/min : 101325 101323.79 101318.63
U   max/avg/min : 0.56768973 0.20962239 0
Prg max-min : 6.3638401
 
Iteration Number = 59

DILUPBiCG:  Solving for Ux, Initial residual = 0.018918459, Final residual = 1.5074887e-05, No Iterations 2
DILUPBiCG:  Solving for Uy, Initial residual = 0.022095947, Final residual = 2.5673083e-06, No Iterations 3
DILUPBiCG:  Solving for Uz, Initial residual = 0.0087123048, Final residual = 1.0916595e-07, No Iterations 3
DILUPBiCG:  Solving for h, Initial residual = 0.0023229728, Final residual = 1.8613774e-06, No Iterations 5
GAMG:  Solving for p_rgh, Initial residual = 0.0095336638, Final residual = 5.1097169e-06, No Iterations 4
time step continuity errors : sum local = 8.9759839e-05, global = -6.5353942e-06, cumulative = 0.00076418871
ExecutionTime = 2.24 s  ClockTime = 2 s
Inflow      : 5.6838126e-05 [kg/s]
Outflow     : 5.6832676e-05 [kg/s]
EnergyInflow  : 16.793518 [W]
EnergyOutflow : 17.23254 [W]
rho max/avg/min : 1.2016458 1.0451217 0.7645604
T   max/avg/min : 461.52311 346.25121 293.68694
P   max/avg/min : 101324.91 101316.15 101307.4
Prg max/avg/min : 101325 101323.78 101318.61
U   max/avg/min : 0.58285099 0.21318398 0
Prg max-min : 6.3839403
 
Iteration Number = 60

DILUPBiCG:  Solving for Ux, Initial residual = 0.016746044, Final residual = 1.3612367e-05, No Iterations 2
DILUPBiCG:  Solving for Uy, Initial residual = 0.021036842, Final residual = 1.2071953e-06, No Iterations 3
DILUPBiCG:  Solving for Uz, Initial residual = 0.0089479629, Final residual = 3.8799537e-06, No Iterations 2
DILUPBiCG:  Solving for h, Initial residual = 0.0022151538, Final residual = 1.8901828e-06, No Iterations 5
GAMG:  Solving for p_rgh, Initial residual = 0.0090662197, Final residual = 3.5771257e-06, No Iterations 4
time step continuity errors : sum local = 6.2875671e-05, global = 2.8026662e-06, cumulative = 0.00076699137
ExecutionTime = 2.28 s  ClockTime = 2 s
Inflow      : 5.7099449e-05 [kg/s]
Outflow     : 5.7101786e-05 [kg/s]
EnergyInflow  : 16.870729 [W]
EnergyOutflow : 17.319175 [W]
rho max/avg/min : 1.2016458 1.0446769 0.76344273
T   max/avg/min : 462.19875 346.48622 293.68645
P   max/avg/min : 101324.91 101316.16 101307.4
Prg max/avg/min : 101325 101323.78 101318.6
U   max/avg/min : 0.59778765 0.216661 0
Prg max-min : 6.396427
 
Iteration Number = 61

DILUPBiCG:  Solving for Ux, Initial residual = 0.017693118, Final residual = 1.4281025e-05, No Iterations 2
DILUPBiCG:  Solving for Uy, Initial residual = 0.02337288, Final residual = 2.6732325e-06, No Iterations 3
DILUPBiCG:  Solving for Uz, Initial residual = 0.0080314234, Final residual = 9.2828287e-08, No Iterations 3
DILUPBiCG:  Solving for h, Initial residual = 0.0021134052, Final residual = 1.997019e-06, No Iterations 5
GAMG:  Solving for p_rgh, Initial residual = 0.0086790776, Final residual = 3.8120187e-06, No Iterations 4
time step continuity errors : sum local = 6.6823257e-05, global = -6.1337235e-06, cumulative = 0.00076085765
ExecutionTime = 2.32 s  ClockTime = 3 s
Inflow      : 5.7367201e-05 [kg/s]
Outflow     : 5.7362086e-05 [kg/s]
EnergyInflow  : 16.94984 [W]
EnergyOutflow : 17.402962 [W]
rho max/avg/min : 1.2016458 1.0442623 0.76236048
T   max/avg/min : 462.85491 346.7084 293.68602
P   max/avg/min : 101324.91 101316.15 101307.4
Prg max/avg/min : 101325 101323.78 101318.58
U   max/avg/min : 0.61250309 0.2200439 0
Prg max-min : 6.4149699
 
Iteration Number = 62

DILUPBiCG:  Solving for Ux, Initial residual = 0.015251356, Final residual = 1.1795145e-05, No Iterations 2
DILUPBiCG:  Solving for Uy, Initial residual = 0.022912095, Final residual = 1.0295845e-06, No Iterations 3
DILUPBiCG:  Solving for Uz, Initial residual = 0.0081998215, Final residual = 5.4216209e-06, No Iterations 2
DILUPBiCG:  Solving for h, Initial residual = 0.0020168409, Final residual = 1.7138923e-06, No Iterations 6
GAMG:  Solving for p_rgh, Initial residual = 0.0082529492, Final residual = 2.7834561e-06, No Iterations 4
time step continuity errors : sum local = 4.8780681e-05, global = 4.1755923e-06, cumulative = 0.00076503324
ExecutionTime = 2.36 s  ClockTime = 3 s
Inflow      : 5.7581792e-05 [kg/s]
Outflow     : 5.7585274e-05 [kg/s]
EnergyInflow  : 17.013243 [W]
EnergyOutflow : 17.475549 [W]
rho max/avg/min : 1.2016458 1.0438774 0.76131292
T   max/avg/min : 463.49178 346.91788 293.68578
P   max/avg/min : 101324.91 101316.16 101307.4
Prg max/avg/min : 101325 101323.78 101318.57
U   max/avg/min : 0.6269846 0.22335336 0
Prg max-min : 6.4274222
 
Iteration Number = 63

DILUPBiCG:  Solving for Ux, Initial residual = 0.016323541, Final residual = 1.3658446e-05, No Iterations 2
DILUPBiCG:  Solving for Uy, Initial residual = 0.022894683, Final residual = 5.8297813e-06, No Iterations 3
DILUPBiCG:  Solving for Uz, Initial residual = 0.0074811919, Final residual = 8.1945213e-08, No Iterations 3
DILUPBiCG:  Solving for h, Initial residual = 0.0019253341, Final residual = 4.3049425e-07, No Iterations 6
GAMG:  Solving for p_rgh, Initial residual = 0.0079084304, Final residual = 3.6813011e-06, No Iterations 4
time step continuity errors : sum local = 6.4388633e-05, global = -1.4133187e-05, cumulative = 0.00075090006
ExecutionTime = 2.4 s  ClockTime = 3 s
Inflow      : 5.7808274e-05 [kg/s]
Outflow     : 5.7796487e-05 [kg/s]
EnergyInflow  : 17.08016 [W]
EnergyOutflow : 17.544387 [W]
rho max/avg/min : 1.2016458 1.0435195 0.76029963
T   max/avg/min : 464.10951 347.11566 293.68566
P   max/avg/min : 101324.91 101316.15 101307.4
Prg max/avg/min : 101325 101323.77 101318.55
U   max/avg/min : 0.64123056 0.2265738 0
Prg max-min : 6.4441036
 
Iteration Number = 64

DILUPBiCG:  Solving for Ux, Initial residual = 0.014443164, Final residual = 1.0836689e-05, No Iterations 2
DILUPBiCG:  Solving for Uy, Initial residual = 0.023027556, Final residual = 2.248073e-06, No Iterations 3
DILUPBiCG:  Solving for Uz, Initial residual = 0.0075559248, Final residual = 2.0911232e-07, No Iterations 3
DILUPBiCG:  Solving for h, Initial residual = 0.0018387139, Final residual = 1.7733165e-07, No Iterations 6
GAMG:  Solving for p_rgh, Initial residual = 0.0075573827, Final residual = 5.8555195e-06, No Iterations 3
time step continuity errors : sum local = 0.00010234522, global = -2.0395637e-05, cumulative = 0.00073050442
ExecutionTime = 2.44 s  ClockTime = 3 s
Inflow      : 5.7993205e-05 [kg/s]
Outflow     : 5.7976195e-05 [kg/s]
EnergyInflow  : 17.1348 [W]
EnergyOutflow : 17.603677 [W]
rho max/avg/min : 1.2016458 1.0431873 0.75931952
T   max/avg/min : 464.70856 347.30215 293.6856
P   max/avg/min : 101324.91 101316.16 101307.4
Prg max/avg/min : 101325 101323.77 101318.54
U   max/avg/min : 0.65523847 0.22972744 0
Prg max-min : 6.456649
 
Iteration Number = 65

DILUPBiCG:  Solving for Ux, Initial residual = 0.015111837, Final residual = 1.2617216e-05, No Iterations 2
DILUPBiCG:  Solving for Uy, Initial residual = 0.023558351, Final residual = 3.4673502e-06, No Iterations 3
DILUPBiCG:  Solving for Uz, Initial residual = 0.0070242175, Final residual = 7.9485414e-08, No Iterations 3
DILUPBiCG:  Solving for h, Initial residual = 0.0017565919, Final residual = 7.338574e-07, No Iterations 6
GAMG:  Solving for p_rgh, Initial residual = 0.0072724232, Final residual = 2.2245493e-06, No Iterations 4
time step continuity errors : sum local = 3.8791448e-05, global = 8.7036815e-06, cumulative = 0.0007392081
ExecutionTime = 2.47 s  ClockTime = 3 s
Inflow      : 5.8140858e-05 [kg/s]
Outflow     : 5.8148117e-05 [kg/s]
EnergyInflow  : 17.178426 [W]
EnergyOutflow : 17.660446 [W]
rho max/avg/min : 1.2016458 1.04288 0.75837158
T   max/avg/min : 465.28944 347.47764 293.68556
P   max/avg/min : 101324.91 101316.15 101307.4
Prg max/avg/min : 101325 101323.76 101318.52
U   max/avg/min : 0.66900443 0.23278876 0
Prg max-min : 6.4708243
 
Iteration Number = 66

DILUPBiCG:  Solving for Ux, Initial residual = 0.013108909, Final residual = 1.0853084e-05, No Iterations 2
DILUPBiCG:  Solving for Uy, Initial residual = 0.022074329, Final residual = 1.1408252e-06, No Iterations 3
DILUPBiCG:  Solving for Uz, Initial residual = 0.0069390913, Final residual = 1.1021156e-07, No Iterations 3
DILUPBiCG:  Solving for h, Initial residual = 0.0016782094, Final residual = 1.7321733e-07, No Iterations 6
GAMG:  Solving for p_rgh, Initial residual = 0.0069650396, Final residual = 1.8299526e-06, No Iterations 4
time step continuity errors : sum local = 3.1880864e-05, global = 8.2544135e-06, cumulative = 0.00074746251
ExecutionTime = 2.51 s  ClockTime = 3 s
Inflow      : 5.8283595e-05 [kg/s]
Outflow     : 5.8290479e-05 [kg/s]
EnergyInflow  : 17.220599 [W]
EnergyOutflow : 17.708252 [W]
rho max/avg/min : 1.2016458 1.0425956 0.75745516
T   max/avg/min : 465.85237 347.64284 293.68554
P   max/avg/min : 101324.91 101316.16 101307.4
Prg max/avg/min : 101325 101323.76 101318.51
U   max/avg/min : 0.68258091 0.23578496 0
Prg max-min : 6.484147
 
Iteration Number = 67

DILUPBiCG:  Solving for Ux, Initial residual = 0.014560637, Final residual = 1.1367254e-05, No Iterations 2
DILUPBiCG:  Solving for Uy, Initial residual = 0.022058719, Final residual = 1.2022042e-06, No Iterations 3
DILUPBiCG:  Solving for Uz, Initial residual = 0.0066178528, Final residual = 7.2258175e-08, No Iterations 3
DILUPBiCG:  Solving for h, Initial residual = 0.0016038989, Final residual = 4.1266178e-07, No Iterations 6
GAMG:  Solving for p_rgh, Initial residual = 0.0066930163, Final residual = 1.7578176e-06, No Iterations 4
time step continuity errors : sum local = 3.0566084e-05, global = 1.8270818e-05, cumulative = 0.00076573333
ExecutionTime = 2.55 s  ClockTime = 3 s
Inflow      : 5.841056e-05 [kg/s]
Outflow     : 5.8425798e-05 [kg/s]
EnergyInflow  : 17.258113 [W]
EnergyOutflow : 17.753794 [W]
rho max/avg/min : 1.2016458 1.0423332 0.75656972
T   max/avg/min : 466.39759 347.79807 293.68553
P   max/avg/min : 101324.91 101316.15 101307.4
Prg max/avg/min : 101325 101323.76 101318.5
U   max/avg/min : 0.69596658 0.23870553 0
Prg max-min : 6.4966026
 
Iteration Number = 68

DILUPBiCG:  Solving for Ux, Initial residual = 0.012485626, Final residual = 1.010518e-05, No Iterations 2
DILUPBiCG:  Solving for Uy, Initial residual = 0.022722946, Final residual = 5.5754415e-06, No Iterations 3
DILUPBiCG:  Solving for Uz, Initial residual = 0.0064738814, Final residual = 8.3665371e-08, No Iterations 3
DILUPBiCG:  Solving for h, Initial residual = 0.0015333612, Final residual = 4.5589838e-07, No Iterations 6
GAMG:  Solving for p_rgh, Initial residual = 0.0064535962, Final residual = 2.0369517e-06, No Iterations 4
time step continuity errors : sum local = 3.5365868e-05, global = -5.2534553e-06, cumulative = 0.00076047988
ExecutionTime = 2.59 s  ClockTime = 3 s
Inflow      : 5.8542766e-05 [kg/s]
Outflow     : 5.8538385e-05 [kg/s]
EnergyInflow  : 17.297175 [W]
EnergyOutflow : 17.792407 [W]
rho max/avg/min : 1.2016458 1.0420919 0.75571381
T   max/avg/min : 466.92582 347.9437 293.68552
P   max/avg/min : 101324.91 101316.16 101307.4
Prg max/avg/min : 101325 101323.76 101318.49
U   max/avg/min : 0.70909979 0.24156516 0
Prg max-min : 6.5097711
 
Iteration Number = 69

DILUPBiCG:  Solving for Ux, Initial residual = 0.013160689, Final residual = 1.0859048e-05, No Iterations 2
DILUPBiCG:  Solving for Uy, Initial residual = 0.02350589, Final residual = 1.1704228e-06, No Iterations 3
DILUPBiCG:  Solving for Uz, Initial residual = 0.0062569605, Final residual = 6.9682582e-08, No Iterations 3
DILUPBiCG:  Solving for h, Initial residual = 0.0014659158, Final residual = 2.5601265e-07, No Iterations 6
GAMG:  Solving for p_rgh, Initial residual = 0.0062068152, Final residual = 1.4688928e-06, No Iterations 4
time step continuity errors : sum local = 2.5454968e-05, global = -3.6367047e-06, cumulative = 0.00075684317
ExecutionTime = 2.64 s  ClockTime = 3 s
Inflow      : 5.864934e-05 [kg/s]
Outflow     : 5.8646307e-05 [kg/s]
EnergyInflow  : 17.328663 [W]
EnergyOutflow : 17.829444 [W]
rho max/avg/min : 1.2016458 1.0418704 0.75488722
T   max/avg/min : 467.43709 348.08016 293.68551
P   max/avg/min : 101324.91 101316.16 101307.4
Prg max/avg/min : 101325 101323.75 101318.47
U   max/avg/min : 0.72198302 0.24435528 0
Prg max-min : 6.5211079
 
Iteration Number = 70

DILUPBiCG:  Solving for Ux, Initial residual = 0.01226186, Final residual = 9.7878541e-06, No Iterations 2
DILUPBiCG:  Solving for Uy, Initial residual = 0.024647894, Final residual = 1.1691329e-06, No Iterations 3
DILUPBiCG:  Solving for Uz, Initial residual = 0.0060726181, Final residual = 7.9938204e-08, No Iterations 3
DILUPBiCG:  Solving for h, Initial residual = 0.0014018198, Final residual = 2.2151625e-07, No Iterations 6
GAMG:  Solving for p_rgh, Initial residual = 0.0059790495, Final residual = 1.4160167e-06, No Iterations 4
time step continuity errors : sum local = 2.45108e-05, global = 3.5051872e-06, cumulative = 0.00076034836
ExecutionTime = 2.69 s  ClockTime = 3 s
Inflow      : 5.8723152e-05 [kg/s]
Outflow     : 5.8726075e-05 [kg/s]
EnergyInflow  : 17.350472 [W]
EnergyOutflow : 17.857985 [W]
rho max/avg/min : 1.2016458 1.0416678 0.7540893
T   max/avg/min : 467.9317 348.20782 293.68551
P   max/avg/min : 101324.91 101316.16 101307.4
Prg max/avg/min : 101325 101323.75 101318.46
U   max/avg/min : 0.73461231 0.24707112 0
Prg max-min : 6.5335086
 
Iteration Number = 71

DILUPBiCG:  Solving for Ux, Initial residual = 0.012451607, Final residual = 9.7917077e-06, No Iterations 2
DILUPBiCG:  Solving for Uy, Initial residual = 0.025529601, Final residual = 3.0779068e-06, No Iterations 3
DILUPBiCG:  Solving for Uz, Initial residual = 0.0058398082, Final residual = 5.8696772e-08, No Iterations 3
DILUPBiCG:  Solving for h, Initial residual = 0.0013409244, Final residual = 8.1597034e-08, No Iterations 6
GAMG:  Solving for p_rgh, Initial residual = 0.0057631115, Final residual = 1.5314473e-06, No Iterations 4
time step continuity errors : sum local = 2.6467651e-05, global = 3.1383518e-06, cumulative = 0.00076348671
ExecutionTime = 2.73 s  ClockTime = 3 s
Inflow      : 5.881369e-05 [kg/s]
[...]
U   max/avg/min : 1.480198 0.47272946 0
Prg max-min : 6.6480853
 
Iteration Number = 1983

DILUPBiCG:  Solving for Ux, Initial residual = 4.3935299e-05, Final residual = 8.1518103e-10, No Iterations 3
DILUPBiCG:  Solving for Uy, Initial residual = 0.016595193, Final residual = 6.223086e-07, No Iterations 3
DILUPBiCG:  Solving for Uz, Initial residual = 8.7698009e-05, Final residual = 1.443823e-09, No Iterations 3
DILUPBiCG:  Solving for h, Initial residual = 1.1261732e-06, Final residual = 7.5744839e-10, No Iterations 6
GAMG:  Solving for p_rgh, Initial residual = 1.0344466e-05, Final residual = 2.1094754e-09, No Iterations 5
time step continuity errors : sum local = 2.5169703e-08, global = 1.9636764e-09, cumulative = 0.00072632274
ExecutionTime = 78.28 s  ClockTime = 79 s
Inflow      : 0.00015411853 [kg/s]
Outflow     : 0.00015411854 [kg/s]
EnergyInflow  : 45.536201 [W]
EnergyOutflow : 46.149197 [W]
rho max/avg/min : 1.2016456 1.0539291 0.74702044
T   max/avg/min : 472.35945 344.35401 293.68536
P   max/avg/min : 101324.88 101316.13 101307.38
Prg max/avg/min : 101324.97 101323.81 101318.32
U   max/avg/min : 1.4802049 0.4727594 0
Prg max-min : 6.6480828
 
Iteration Number = 1984

DILUPBiCG:  Solving for Ux, Initial residual = 3.7676272e-05, Final residual = 7.522906e-10, No Iterations 3
DILUPBiCG:  Solving for Uy, Initial residual = 0.017114313, Final residual = 9.1040353e-07, No Iterations 3
DILUPBiCG:  Solving for Uz, Initial residual = 8.7915625e-05, Final residual = 1.4479313e-09, No Iterations 3
DILUPBiCG:  Solving for h, Initial residual = 1.1257047e-06, Final residual = 3.7193799e-10, No Iterations 6
GAMG:  Solving for p_rgh, Initial residual = 1.0362327e-05, Final residual = 8.7637585e-09, No Iterations 3
time step continuity errors : sum local = 8.7865296e-08, global = -4.3870013e-08, cumulative = 0.00072627887
ExecutionTime = 78.32 s  ClockTime = 79 s
Inflow      : 0.00015415648 [kg/s]
Outflow     : 0.00015415645 [kg/s]
EnergyInflow  : 45.547414 [W]
EnergyOutflow : 46.160401 [W]
rho max/avg/min : 1.2016456 1.05393 0.74702061
T   max/avg/min : 472.35934 344.3537 293.68536
P   max/avg/min : 101324.88 101316.13 101307.38
Prg max/avg/min : 101324.97 101323.81 101318.32
U   max/avg/min : 1.4802117 0.47278934 0
Prg max-min : 6.6480802
 
Iteration Number = 1985

DILUPBiCG:  Solving for Ux, Initial residual = 4.1353466e-05, Final residual = 7.8685145e-10, No Iterations 3
DILUPBiCG:  Solving for Uy, Initial residual = 0.017050932, Final residual = 3.3969523e-06, No Iterations 3
DILUPBiCG:  Solving for Uz, Initial residual = 8.7790445e-05, Final residual = 1.4450743e-09, No Iterations 3
DILUPBiCG:  Solving for h, Initial residual = 1.1254373e-06, Final residual = 9.3506854e-10, No Iterations 6
GAMG:  Solving for p_rgh, Initial residual = 1.0345392e-05, Final residual = 3.1083129e-09, No Iterations 4
time step continuity errors : sum local = 3.3956415e-08, global = 7.1852445e-09, cumulative = 0.00072628606
ExecutionTime = 78.37 s  ClockTime = 79 s
Inflow      : 0.00015419434 [kg/s]
Outflow     : 0.00015419435 [kg/s]
EnergyInflow  : 45.558599 [W]
EnergyOutflow : 46.1716 [W]
rho max/avg/min : 1.2016456 1.0539308 0.74702077
T   max/avg/min : 472.35924 344.35339 293.68536
P   max/avg/min : 101324.88 101316.13 101307.38
Prg max/avg/min : 101324.97 101323.81 101318.32
U   max/avg/min : 1.4802186 0.47281925 0
Prg max-min : 6.6480776
 
Iteration Number = 1986

DILUPBiCG:  Solving for Ux, Initial residual = 4.0906902e-05, Final residual = 7.9025135e-10, No Iterations 3
DILUPBiCG:  Solving for Uy, Initial residual = 0.017584632, Final residual = 1.456238e-05, No Iterations 2
DILUPBiCG:  Solving for Uz, Initial residual = 8.7685378e-05, Final residual = 1.4432162e-09, No Iterations 3
DILUPBiCG:  Solving for h, Initial residual = 1.1247387e-06, Final residual = 5.5492899e-10, No Iterations 6
GAMG:  Solving for p_rgh, Initial residual = 1.0370273e-05, Final residual = 3.8361173e-09, No Iterations 4
time step continuity errors : sum local = 4.035416e-08, global = 7.0858559e-09, cumulative = 0.00072629314
ExecutionTime = 78.41 s  ClockTime = 79 s
Inflow      : 0.00015423223 [kg/s]
Outflow     : 0.00015423224 [kg/s]
EnergyInflow  : 45.569795 [W]
EnergyOutflow : 46.182798 [W]
rho max/avg/min : 1.2016456 1.0539317 0.74702093
T   max/avg/min : 472.35914 344.35308 293.68536
P   max/avg/min : 101324.88 101316.13 101307.38
Prg max/avg/min : 101324.97 101323.81 101318.32
U   max/avg/min : 1.4802255 0.47284917 0
Prg max-min : 6.648075
 
Iteration Number = 1987

DILUPBiCG:  Solving for Ux, Initial residual = 3.9813073e-05, Final residual = 7.6054745e-10, No Iterations 3
DILUPBiCG:  Solving for Uy, Initial residual = 0.017079048, Final residual = 1.1743473e-06, No Iterations 3
DILUPBiCG:  Solving for Uz, Initial residual = 8.7858037e-05, Final residual = 1.4463298e-09, No Iterations 3
DILUPBiCG:  Solving for h, Initial residual = 1.1242813e-06, Final residual = 4.4929543e-10, No Iterations 6
GAMG:  Solving for p_rgh, Initial residual = 1.0356704e-05, Final residual = 4.3283211e-09, No Iterations 4
time step continuity errors : sum local = 4.5355049e-08, global = -1.0062427e-08, cumulative = 0.00072628308
ExecutionTime = 78.45 s  ClockTime = 79 s
Inflow      : 0.00015427012 [kg/s]
Outflow     : 0.00015427011 [kg/s]
EnergyInflow  : 45.580989 [W]
EnergyOutflow : 46.19399 [W]
rho max/avg/min : 1.2016456 1.0539326 0.7470211
T   max/avg/min : 472.35903 344.35278 293.68536
P   max/avg/min : 101324.88 101316.13 101307.38
Prg max/avg/min : 101324.97 101323.81 101318.32
U   max/avg/min : 1.4802323 0.47287908 0
Prg max-min : 6.6480724
 
Iteration Number = 1988

DILUPBiCG:  Solving for Ux, Initial residual = 4.0870875e-05, Final residual = 7.9183461e-10, No Iterations 3
DILUPBiCG:  Solving for Uy, Initial residual = 0.016494077, Final residual = 1.3571675e-05, No Iterations 2
DILUPBiCG:  Solving for Uz, Initial residual = 8.7663064e-05, Final residual = 1.4418685e-09, No Iterations 3
DILUPBiCG:  Solving for h, Initial residual = 1.1237893e-06, Final residual = 6.5061046e-10, No Iterations 6
GAMG:  Solving for p_rgh, Initial residual = 1.0361029e-05, Final residual = 2.2732073e-09, No Iterations 5
time step continuity errors : sum local = 2.6529048e-08, global = 5.219978e-09, cumulative = 0.0007262883
ExecutionTime = 78.48 s  ClockTime = 79 s
Inflow      : 0.00015430798 [kg/s]
Outflow     : 0.00015430798 [kg/s]
EnergyInflow  : 45.592174 [W]
EnergyOutflow : 46.205181 [W]
rho max/avg/min : 1.2016456 1.0539334 0.74702126
T   max/avg/min : 472.35893 344.35247 293.68536
P   max/avg/min : 101324.88 101316.13 101307.38
Prg max/avg/min : 101324.97 101323.81 101318.32
U   max/avg/min : 1.4802392 0.47290897 0
Prg max-min : 6.6480698
 
Iteration Number = 1989

DILUPBiCG:  Solving for Ux, Initial residual = 4.0045971e-05, Final residual = 7.6465688e-10, No Iterations 3
DILUPBiCG:  Solving for Uy, Initial residual = 0.016541553, Final residual = 3.1068738e-06, No Iterations 3
DILUPBiCG:  Solving for Uz, Initial residual = 8.7821803e-05, Final residual = 1.4453994e-09, No Iterations 3
DILUPBiCG:  Solving for h, Initial residual = 1.1233204e-06, Final residual = 6.8880526e-10, No Iterations 6
GAMG:  Solving for p_rgh, Initial residual = 1.0345711e-05, Final residual = 5.9020463e-09, No Iterations 4
time step continuity errors : sum local = 6.0075057e-08, global = 2.293317e-08, cumulative = 0.00072631123
ExecutionTime = 78.53 s  ClockTime = 79 s
Inflow      : 0.00015434581 [kg/s]
Outflow     : 0.00015434583 [kg/s]
EnergyInflow  : 45.603354 [W]
EnergyOutflow : 46.216368 [W]
rho max/avg/min : 1.2016456 1.0539343 0.74702142
T   max/avg/min : 472.35883 344.35216 293.68536
P   max/avg/min : 101324.88 101316.13 101307.38
Prg max/avg/min : 101324.97 101323.81 101318.32
U   max/avg/min : 1.480246 0.47293887 0
Prg max-min : 6.6480672
 
Iteration Number = 1990

DILUPBiCG:  Solving for Ux, Initial residual = 4.0641698e-05, Final residual = 7.8444469e-10, No Iterations 3
DILUPBiCG:  Solving for Uy, Initial residual = 0.016226728, Final residual = 7.4146517e-07, No Iterations 3
DILUPBiCG:  Solving for Uz, Initial residual = 8.7661968e-05, Final residual = 1.4417755e-09, No Iterations 3
DILUPBiCG:  Solving for h, Initial residual = 1.122848e-06, Final residual = 5.7542193e-10, No Iterations 6
GAMG:  Solving for p_rgh, Initial residual = 1.0350212e-05, Final residual = 6.8285578e-09, No Iterations 4
time step continuity errors : sum local = 6.8020971e-08, global = -5.8481163e-09, cumulative = 0.00072630538
ExecutionTime = 78.56 s  ClockTime = 79 s
Inflow      : 0.00015438368 [kg/s]
Outflow     : 0.00015438368 [kg/s]
EnergyInflow  : 45.614543 [W]
EnergyOutflow : 46.227551 [W]
rho max/avg/min : 1.2016456 1.0539352 0.74702159
T   max/avg/min : 472.35872 344.35185 293.68536
P   max/avg/min : 101324.88 101316.13 101307.38
Prg max/avg/min : 101324.97 101323.81 101318.32
U   max/avg/min : 1.4802529 0.47296876 0
Prg max-min : 6.6480646
 
Iteration Number = 1991

DILUPBiCG:  Solving for Ux, Initial residual = 3.9021025e-05, Final residual = 7.5468973e-10, No Iterations 3
DILUPBiCG:  Solving for Uy, Initial residual = 0.016426187, Final residual = 4.4591353e-08, No Iterations 4
DILUPBiCG:  Solving for Uz, Initial residual = 8.7797452e-05, Final residual = 1.4439162e-09, No Iterations 3
DILUPBiCG:  Solving for h, Initial residual = 1.122514e-06, Final residual = 4.6573829e-10, No Iterations 6
GAMG:  Solving for p_rgh, Initial residual = 1.0351776e-05, Final residual = 3.8823226e-09, No Iterations 4
time step continuity errors : sum local = 4.1026568e-08, global = -7.5061316e-10, cumulative = 0.00072630463
ExecutionTime = 78.6 s  ClockTime = 79 s
Inflow      : 0.00015442151 [kg/s]
Outflow     : 0.00015442151 [kg/s]
EnergyInflow  : 45.625719 [W]
EnergyOutflow : 46.238731 [W]
rho max/avg/min : 1.2016456 1.053936 0.74702175
T   max/avg/min : 472.35862 344.35155 293.68536
P   max/avg/min : 101324.88 101316.13 101307.38
Prg max/avg/min : 101324.97 101323.81 101318.32
U   max/avg/min : 1.4802597 0.47299863 0
Prg max-min : 6.648062
 
Iteration Number = 1992

DILUPBiCG:  Solving for Ux, Initial residual = 4.2348009e-05, Final residual = 8.038131e-10, No Iterations 3
DILUPBiCG:  Solving for Uy, Initial residual = 0.016714073, Final residual = 5.3040291e-07, No Iterations 3
DILUPBiCG:  Solving for Uz, Initial residual = 8.757841e-05, Final residual = 1.439705e-09, No Iterations 3
DILUPBiCG:  Solving for h, Initial residual = 1.121874e-06, Final residual = 4.2620866e-10, No Iterations 6
GAMG:  Solving for p_rgh, Initial residual = 1.0347543e-05, Final residual = 2.2647429e-09, No Iterations 5
time step continuity errors : sum local = 2.6731997e-08, global = 8.0278905e-10, cumulative = 0.00072630544
ExecutionTime = 78.64 s  ClockTime = 79 s
Inflow      : 0.00015445933 [kg/s]
Outflow     : 0.00015445933 [kg/s]
EnergyInflow  : 45.636894 [W]
EnergyOutflow : 46.249908 [W]
rho max/avg/min : 1.2016456 1.0539369 0.74702191
T   max/avg/min : 472.35852 344.35124 293.68536
P   max/avg/min : 101324.88 101316.13 101307.38
Prg max/avg/min : 101324.97 101323.81 101318.32
U   max/avg/min : 1.4802666 0.4730285 0
Prg max-min : 6.6480594
 
Iteration Number = 1993

DILUPBiCG:  Solving for Ux, Initial residual = 3.8704151e-05, Final residual = 7.5943339e-10, No Iterations 3
DILUPBiCG:  Solving for Uy, Initial residual = 0.017098053, Final residual = 1.5430042e-06, No Iterations 3
DILUPBiCG:  Solving for Uz, Initial residual = 8.7786034e-05, Final residual = 1.4436557e-09, No Iterations 3
DILUPBiCG:  Solving for h, Initial residual = 1.1214163e-06, Final residual = 6.992709e-10, No Iterations 6
GAMG:  Solving for p_rgh, Initial residual = 1.0335121e-05, Final residual = 8.8602129e-09, No Iterations 3
time step continuity errors : sum local = 8.7678698e-08, global = -4.0834644e-08, cumulative = 0.0007262646
ExecutionTime = 78.68 s  ClockTime = 79 s
Inflow      : 0.00015449717 [kg/s]
Outflow     : 0.00015449714 [kg/s]
EnergyInflow  : 45.648075 [W]
EnergyOutflow : 46.261081 [W]
rho max/avg/min : 1.2016456 1.0539378 0.74702208
T   max/avg/min : 472.35841 344.35093 293.68536
P   max/avg/min : 101324.88 101316.13 101307.38
Prg max/avg/min : 101324.97 101323.81 101318.32
U   max/avg/min : 1.4802734 0.47305837 0
Prg max-min : 6.6480568
 
Iteration Number = 1994

DILUPBiCG:  Solving for Ux, Initial residual = 4.037021e-05, Final residual = 7.7413383e-10, No Iterations 3
DILUPBiCG:  Solving for Uy, Initial residual = 0.016270229, Final residual = 9.5241173e-07, No Iterations 3
DILUPBiCG:  Solving for Uz, Initial residual = 8.7659678e-05, Final residual = 1.4407044e-09, No Iterations 3
DILUPBiCG:  Solving for h, Initial residual = 1.1211435e-06, Final residual = 4.8558043e-10, No Iterations 6
GAMG:  Solving for p_rgh, Initial residual = 1.0346724e-05, Final residual = 4.0709301e-09, No Iterations 4
time step continuity errors : sum local = 4.2790069e-08, global = 1.3365942e-08, cumulative = 0.00072627797
ExecutionTime = 78.71 s  ClockTime = 79 s
Inflow      : 0.00015453493 [kg/s]
Outflow     : 0.00015453494 [kg/s]
EnergyInflow  : 45.65923 [W]
EnergyOutflow : 46.272251 [W]
rho max/avg/min : 1.2016456 1.0539386 0.74702224
T   max/avg/min : 472.35831 344.35063 293.68536
P   max/avg/min : 101324.88 101316.13 101307.38
Prg max/avg/min : 101324.97 101323.81 101318.32
U   max/avg/min : 1.4802803 0.47308821 0
Prg max-min : 6.6480542
 
Iteration Number = 1995

DILUPBiCG:  Solving for Ux, Initial residual = 4.1458188e-05, Final residual = 7.8846459e-10, No Iterations 3
DILUPBiCG:  Solving for Uy, Initial residual = 0.017335515, Final residual = 1.3464034e-05, No Iterations 2
DILUPBiCG:  Solving for Uz, Initial residual = 8.7572399e-05, Final residual = 1.4393195e-09, No Iterations 3
DILUPBiCG:  Solving for h, Initial residual = 1.1204505e-06, Final residual = 4.0872205e-10, No Iterations 6
GAMG:  Solving for p_rgh, Initial residual = 1.034978e-05, Final residual = 3.9093725e-09, No Iterations 4
time step continuity errors : sum local = 4.2080955e-08, global = 2.6327181e-09, cumulative = 0.0007262806
ExecutionTime = 78.75 s  ClockTime = 79 s
Inflow      : 0.00015457273 [kg/s]
Outflow     : 0.00015457273 [kg/s]
EnergyInflow  : 45.670398 [W]
EnergyOutflow : 46.283419 [W]
rho max/avg/min : 1.2016456 1.0539395 0.7470224
T   max/avg/min : 472.35821 344.35032 293.68536
P   max/avg/min : 101324.88 101316.13 101307.38
Prg max/avg/min : 101324.97 101323.81 101318.32
U   max/avg/min : 1.4802871 0.47311806 0
Prg max-min : 6.6480516
 
Iteration Number = 1996

DILUPBiCG:  Solving for Ux, Initial residual = 4.0820028e-05, Final residual = 8.2314102e-10, No Iterations 3
DILUPBiCG:  Solving for Uy, Initial residual = 0.016837986, Final residual = 1.4676694e-05, No Iterations 2
DILUPBiCG:  Solving for Uz, Initial residual = 8.7728632e-05, Final residual = 1.4418456e-09, No Iterations 3
DILUPBiCG:  Solving for h, Initial residual = 1.1200082e-06, Final residual = 2.0026543e-10, No Iterations 7
GAMG:  Solving for p_rgh, Initial residual = 1.0805325e-05, Final residual = 4.7797549e-09, No Iterations 4
time step continuity errors : sum local = 5.0337732e-08, global = -1.6397573e-08, cumulative = 0.0007262642
ExecutionTime = 78.79 s  ClockTime = 79 s
Inflow      : 0.00015461051 [kg/s]
Outflow     : 0.0001546105 [kg/s]
EnergyInflow  : 45.681563 [W]
EnergyOutflow : 46.294581 [W]
rho max/avg/min : 1.2016456 1.0539404 0.74702257
T   max/avg/min : 472.3581 344.35001 293.68536
P   max/avg/min : 101324.88 101316.13 101307.38
Prg max/avg/min : 101324.97 101323.81 101318.32
U   max/avg/min : 1.480294 0.4731479 0
Prg max-min : 6.648049
 
Iteration Number = 1997

DILUPBiCG:  Solving for Ux, Initial residual = 4.9766661e-05, Final residual = 1.3393206e-09, No Iterations 3
DILUPBiCG:  Solving for Uy, Initial residual = 0.017964424, Final residual = 2.154855e-06, No Iterations 3
DILUPBiCG:  Solving for Uz, Initial residual = 8.7533058e-05, Final residual = 1.4374734e-09, No Iterations 3
DILUPBiCG:  Solving for h, Initial residual = 1.1195056e-06, Final residual = 3.8895637e-10, No Iterations 6
GAMG:  Solving for p_rgh, Initial residual = 1.0628575e-05, Final residual = 2.3070649e-09, No Iterations 5
time step continuity errors : sum local = 2.7184937e-08, global = 5.2220598e-09, cumulative = 0.00072626943
ExecutionTime = 78.83 s  ClockTime = 79 s
Inflow      : 0.00015464826 [kg/s]
Outflow     : 0.00015464827 [kg/s]
EnergyInflow  : 45.692716 [W]
EnergyOutflow : 46.305742 [W]
rho max/avg/min : 1.2016456 1.0539412 0.74702273
T   max/avg/min : 472.358 344.34971 293.68536
P   max/avg/min : 101324.88 101316.13 101307.38
Prg max/avg/min : 101324.97 101323.81 101318.32
U   max/avg/min : 1.4803008 0.47317772 0
Prg max-min : 6.6480464
 
Iteration Number = 1998

DILUPBiCG:  Solving for Ux, Initial residual = 4.398338e-05, Final residual = 9.8589584e-10, No Iterations 3
DILUPBiCG:  Solving for Uy, Initial residual = 0.018138522, Final residual = 1.7497029e-05, No Iterations 2
DILUPBiCG:  Solving for Uz, Initial residual = 8.7684053e-05, Final residual = 1.4409829e-09, No Iterations 3
DILUPBiCG:  Solving for h, Initial residual = 1.1190269e-06, Final residual = 4.4126151e-10, No Iterations 6
GAMG:  Solving for p_rgh, Initial residual = 1.0429e-05, Final residual = 5.9222461e-09, No Iterations 4
time step continuity errors : sum local = 6.1175985e-08, global = 2.4013934e-08, cumulative = 0.00072629344
ExecutionTime = 78.87 s  ClockTime = 79 s
Inflow      : 0.000154686 [kg/s]
Outflow     : 0.00015468602 [kg/s]
EnergyInflow  : 45.703866 [W]
EnergyOutflow : 46.316898 [W]
rho max/avg/min : 1.2016456 1.0539421 0.74702289
T   max/avg/min : 472.3579 344.3494 293.68536
P   max/avg/min : 101324.88 101316.13 101307.38
Prg max/avg/min : 101324.97 101323.81 101318.32
U   max/avg/min : 1.4803077 0.47320755 0
Prg max-min : 6.6480438
 
Iteration Number = 1999

DILUPBiCG:  Solving for Ux, Initial residual = 4.2694616e-05, Final residual = 1.079473e-09, No Iterations 3
DILUPBiCG:  Solving for Uy, Initial residual = 0.018069569, Final residual = 1.3954932e-05, No Iterations 2
DILUPBiCG:  Solving for Uz, Initial residual = 8.7547085e-05, Final residual = 1.4376233e-09, No Iterations 3
DILUPBiCG:  Solving for h, Initial residual = 1.1185532e-06, Final residual = 6.3022375e-10, No Iterations 6
GAMG:  Solving for p_rgh, Initial residual = 1.0373085e-05, Final residual = 4.6984578e-09, No Iterations 4
time step continuity errors : sum local = 4.8743886e-08, global = -8.1760194e-09, cumulative = 0.00072628526
ExecutionTime = 78.91 s  ClockTime = 79 s
Inflow      : 0.00015472377 [kg/s]
Outflow     : 0.00015472376 [kg/s]
EnergyInflow  : 45.715025 [W]
EnergyOutflow : 46.328052 [W]
rho max/avg/min : 1.2016456 1.053943 0.74702306
T   max/avg/min : 472.35779 344.3491 293.68536
P   max/avg/min : 101324.88 101316.13 101307.38
Prg max/avg/min : 101324.97 101323.81 101318.32
U   max/avg/min : 1.4803145 0.47323736 0
Prg max-min : 6.6480412
 
Iteration Number = 2000

DILUPBiCG:  Solving for Ux, Initial residual = 4.152664e-05, Final residual = 8.245069e-10, No Iterations 3
DILUPBiCG:  Solving for Uy, Initial residual = 0.017371063, Final residual = 6.5642e-07, No Iterations 3
DILUPBiCG:  Solving for Uz, Initial residual = 8.7661428e-05, Final residual = 1.4396802e-09, No Iterations 3
DILUPBiCG:  Solving for h, Initial residual = 1.1181671e-06, Final residual = 6.8639461e-10, No Iterations 6
GAMG:  Solving for p_rgh, Initial residual = 1.0364248e-05, Final residual = 3.9681817e-09, No Iterations 4
time step continuity errors : sum local = 4.1838153e-08, global = -1.5891028e-09, cumulative = 0.00072628367
ExecutionTime = 79.01 s  ClockTime = 79 s
Inflow      : 0.00015476149 [kg/s]
Outflow     : 0.00015476149 [kg/s]
EnergyInflow  : 45.726171 [W]
EnergyOutflow : 46.339201 [W]
rho max/avg/min : 1.2016456 1.0539438 0.74702322
T   max/avg/min : 472.35769 344.34879 293.68536
P   max/avg/min : 101324.88 101316.13 101307.38
Prg max/avg/min : 101324.97 101323.81 101318.32
U   max/avg/min : 1.4803214 0.47326716 0
Prg max-min : 6.6480386
 
End

