/*---------------------------------------------------------------------------*\
| =========                 |                                                 |
| \\      /  F ield         | OpenFOAM: The Open Source CFD Toolbox           |
|  \\    /   O peration     | Version:  4.0                                   |
|   \\  /    A nd           | Web:      www.OpenFOAM.org                      |
|    \\/     M anipulation  |                                                 |
\*---------------------------------------------------------------------------*/
Build  : 4.0-665f1db4c1f1
Exec   : pupoBuoyantSimpleFoam
Date   : Sep 16 2016
Time   : 16:55:50
Host   : "SC500"
PID    : 7673
Case   : /home/pedro/Documents/ThesisProject/OpenFoam/validation1rod/NoRad
nProcs : 1
sigFpe : Enabling floating point exception trapping (FOAM_SIGFPE).
fileModificationChecking : Monitoring run-time modified files using timeStampMaster
allowSystemOperations : Allowing user-supplied system call operations

// * * * * * * * * * * * * * * * * * * * * * * * * * * * * * * * * * * * * * //
Create time

Create mesh for time = 0


SIMPLE: convergence criteria
    field p_rgh	 tolerance 1e-06
    field Uz	 tolerance 1e-06
    field h	 tolerance 1e-06

Reading thermophysical properties

Selecting thermodynamics package 
{
    type            heRhoThermo;
    mixture         pureMixture;
    transport       sutherland;
    thermo          hConst;
    equationOfState perfectGas;
    specie          specie;
    energy          sensibleEnthalpy;
}


Reading g

Reading hRef
Calculating field g.h

Selecting turbulence model type laminar
No MRF models present

Selecting radiationModel none
 
rho max/avg/min : 1.2016452 1.2015414 1.2014377
T   max/avg/min : 293.7 293.7 293.7
P   max/avg/min : 101324.91 101316.16 101307.41
Prg max/avg/min : 101325 101325 101325
U   max/avg/min : 0 0 0
 
No finite volume options present


Starting Iteration loop

Iteration Number = 1

DILUPBiCG:  Solving for Ux, Initial residual = 0.009764874, Final residual = 1.4535255e-06, No Iterations 2
DILUPBiCG:  Solving for Uy, Initial residual = 4.8698736e-07, Final residual = 4.8698736e-07, No Iterations 0
DILUPBiCG:  Solving for Uz, Initial residual = 1, Final residual = 0.00034288199, No Iterations 2
DILUPBiCG:  Solving for h, Initial residual = 1, Final residual = 0.00045976174, No Iterations 1
GAMG:  Solving for p_rgh, Initial residual = 0.75803134, Final residual = 0.00025801351, No Iterations 3
time step continuity errors : sum local = 5.914932e-05, global = -2.5635941e-05, cumulative = -2.5635941e-05
ExecutionTime = 0.08 s  ClockTime = 0 s
Inflow      : -2.3390647e-07 [kg/s]
Outflow     : -2.5528683e-07 [kg/s]
EnergyInflow  : -0.069110521 [W]
EnergyOutflow : -0.075427609 [W]
EnergyBalance : -0.006317088 [W]
rho max/avg/min : 1.2016452 1.1980051 1.1399242
T   max/avg/min : 309.54886 294.59253 293.7
P   max/avg/min : 101324.91 101316.16 101307.41
Prg max/avg/min : 101325 101324.97 101324.1
U   max/avg/min : 5.8462617e-05 -8.1613293e-05 -0.00085200482
Prg max-min : 0.90127834
 
Iteration Number = 2

DILUPBiCG:  Solving for Ux, Initial residual = 0.34631606, Final residual = 0.00010213176, No Iterations 2
DILUPBiCG:  Solving for Uy, Initial residual = 9.0839382e-05, Final residual = 2.3266479e-08, No Iterations 2
DILUPBiCG:  Solving for Uz, Initial residual = 0.38433935, Final residual = 4.1774205e-05, No Iterations 2
DILUPBiCG:  Solving for h, Initial residual = 0.25078281, Final residual = 6.5473003e-05, No Iterations 1
GAMG:  Solving for p_rgh, Initial residual = 0.027109991, Final residual = 1.3304611e-05, No Iterations 4
time step continuity errors : sum local = 4.1781953e-05, global = 1.9779662e-06, cumulative = -2.3657975e-05
ExecutionTime = 0.12 s  ClockTime = 0 s
Inflow      : -3.4529179e-07 [kg/s]
Outflow     : -3.4364216e-07 [kg/s]
EnergyInflow  : -0.10202067 [W]
EnergyOutflow : -0.10153327 [W]
EnergyBalance : 0.00048740112 [W]
rho max/avg/min : 1.2016452 1.1947811 1.1102971
T   max/avg/min : 317.8094 295.43286 293.70001
P   max/avg/min : 101324.91 101316.16 101307.41
Prg max/avg/min : 101325 101324.95 101323.66
U   max/avg/min : 0.00018394043 -0.00011005604 -0.00083517645
Prg max-min : 1.3359311
 
Iteration Number = 3

DILUPBiCG:  Solving for Ux, Initial residual = 0.51166081, Final residual = 0.00020327382, No Iterations 2
DILUPBiCG:  Solving for Uy, Initial residual = 0.00011190609, Final residual = 3.8470791e-08, No Iterations 2
DILUPBiCG:  Solving for Uz, Initial residual = 0.21053082, Final residual = 1.6146824e-05, No Iterations 2
DILUPBiCG:  Solving for h, Initial residual = 0.15518643, Final residual = 4.9679243e-05, No Iterations 1
GAMG:  Solving for p_rgh, Initial residual = 0.013130956, Final residual = 2.6802812e-06, No Iterations 3
time step continuity errors : sum local = 1.5038608e-05, global = -8.8929283e-06, cumulative = -3.2550903e-05
ExecutionTime = 0.16 s  ClockTime = 0 s
Inflow      : -2.5448967e-07 [kg/s]
Outflow     : -2.6190636e-07 [kg/s]
EnergyInflow  : -0.075192076 [W]
EnergyOutflow : -0.077383111 [W]
EnergyBalance : -0.0021910342 [W]
rho max/avg/min : 1.2016452 1.1917488 1.0912455
T   max/avg/min : 323.35792 296.2362 293.70002
P   max/avg/min : 101324.91 101316.16 101307.41
Prg max/avg/min : 101325 101324.93 101323.39
U   max/avg/min : 0.00036248721 -4.2785507e-05 -0.00064980288
Prg max-min : 1.6147475
 
Iteration Number = 4

DILUPBiCG:  Solving for Ux, Initial residual = 0.40833544, Final residual = 0.0001481105, No Iterations 2
DILUPBiCG:  Solving for Uy, Initial residual = 6.8963724e-05, Final residual = 9.8913494e-07, No Iterations 1
DILUPBiCG:  Solving for Uz, Initial residual = 0.17088876, Final residual = 4.056821e-06, No Iterations 2
DILUPBiCG:  Solving for h, Initial residual = 0.11217733, Final residual = 4.5662751e-05, No Iterations 1
GAMG:  Solving for p_rgh, Initial residual = 0.0083842245, Final residual = 3.795134e-06, No Iterations 3
time step continuity errors : sum local = 2.9948684e-05, global = 1.3770385e-05, cumulative = -1.8780518e-05
ExecutionTime = 0.19 s  ClockTime = 0 s
Inflow      : -2.1529415e-07 [kg/s]
Outflow     : -2.0380966e-07 [kg/s]
EnergyInflow  : -0.063611283 [W]
EnergyOutflow : -0.060217093 [W]
EnergyBalance : 0.0033941902 [W]
rho max/avg/min : 1.2016451 1.1887958 1.0762129
T   max/avg/min : 327.87457 297.02853 293.70003
P   max/avg/min : 101324.91 101316.16 101307.41
Prg max/avg/min : 101325 101324.91 101323.16
U   max/avg/min : 0.00059012171 3.4752382e-05 -0.00051207543
Prg max-min : 1.8350279
 
Iteration Number = 5

DILUPBiCG:  Solving for Ux, Initial residual = 0.46725375, Final residual = 0.00015992042, No Iterations 2
DILUPBiCG:  Solving for Uy, Initial residual = 6.1202063e-05, Final residual = 8.2591461e-07, No Iterations 1
DILUPBiCG:  Solving for Uz, Initial residual = 0.20229351, Final residual = 4.1756063e-06, No Iterations 2
DILUPBiCG:  Solving for h, Initial residual = 0.088618233, Final residual = 4.6560998e-05, No Iterations 1
GAMG:  Solving for p_rgh, Initial residual = 0.0057347671, Final residual = 3.1329577e-06, No Iterations 3
time step continuity errors : sum local = 3.1615319e-05, global = 4.607009e-06, cumulative = -1.4173509e-05
ExecutionTime = 0.22 s  ClockTime = 0 s
Inflow      : -1.6520156e-07 [kg/s]
Outflow     : -1.6135931e-07 [kg/s]
EnergyInflow  : -0.048810816 [W]
EnergyOutflow : -0.047673389 [W]
EnergyBalance : 0.0011374269 [W]
rho max/avg/min : 1.2016451 1.1858921 1.0635252
T   max/avg/min : 331.78569 297.81609 293.70003
P   max/avg/min : 101324.91 101316.16 101307.41
Prg max/avg/min : 101325 101324.88 101322.98
U   max/avg/min : 0.00087795575 0.00013782974 -0.00042654397
Prg max-min : 2.020713
 
Iteration Number = 6

DILUPBiCG:  Solving for Ux, Initial residual = 0.34122555, Final residual = 0.00010233342, No Iterations 2
DILUPBiCG:  Solving for Uy, Initial residual = 6.0447908e-05, Final residual = 6.8128659e-07, No Iterations 1
DILUPBiCG:  Solving for Uz, Initial residual = 0.18563246, Final residual = 2.6992924e-06, No Iterations 2
DILUPBiCG:  Solving for h, Initial residual = 0.073546656, Final residual = 5.0537754e-05, No Iterations 1
GAMG:  Solving for p_rgh, Initial residual = 0.004566763, Final residual = 1.5274329e-06, No Iterations 4
time step continuity errors : sum local = 1.8713821e-05, global = 8.282115e-07, cumulative = -1.3345297e-05
ExecutionTime = 0.26 s  ClockTime = 0 s
Inflow      : -1.3059646e-07 [kg/s]
Outflow     : -1.2990573e-07 [kg/s]
EnergyInflow  : -0.038586317 [W]
EnergyOutflow : -0.038377907 [W]
EnergyBalance : 0.00020841019 [W]
rho max/avg/min : 1.2016451 1.1830279 1.052484
T   max/avg/min : 335.26614 298.60029 293.70003
P   max/avg/min : 101324.91 101316.16 101307.41
Prg max/avg/min : 101325 101324.86 101322.82
U   max/avg/min : 0.0012157532 0.00027682746 -0.00036823648
Prg max-min : 2.182457
 
Iteration Number = 7

DILUPBiCG:  Solving for Ux, Initial residual = 0.30710629, Final residual = 8.5761989e-05, No Iterations 2
DILUPBiCG:  Solving for Uy, Initial residual = 6.2983801e-05, Final residual = 5.6780202e-07, No Iterations 1
DILUPBiCG:  Solving for Uz, Initial residual = 0.18683061, Final residual = 2.77427e-06, No Iterations 2
DILUPBiCG:  Solving for h, Initial residual = 0.063041887, Final residual = 5.6712101e-05, No Iterations 1
GAMG:  Solving for p_rgh, Initial residual = 0.0042225202, Final residual = 7.8726749e-07, No Iterations 4
time step continuity errors : sum local = 1.1384973e-05, global = -2.02283e-06, cumulative = -1.5368127e-05
ExecutionTime = 0.29 s  ClockTime = 0 s
Inflow      : -1.0494732e-07 [kg/s]
Outflow     : -1.0663436e-07 [kg/s]
EnergyInflow  : -0.031007967 [W]
EnergyOutflow : -0.031498627 [W]
EnergyBalance : -0.00049066076 [W]
rho max/avg/min : 1.2016451 1.1801981 1.0426822
T   max/avg/min : 338.41783 299.38156 293.70003
P   max/avg/min : 101324.91 101316.16 101307.41
Prg max/avg/min : 101325 101324.84 101322.67
U   max/avg/min : 0.0016190271 0.00045884958 -0.00030661016
Prg max-min : 2.3258174
 
Iteration Number = 8

DILUPBiCG:  Solving for Ux, Initial residual = 0.26267236, Final residual = 6.6976704e-05, No Iterations 2
DILUPBiCG:  Solving for Uy, Initial residual = 7.7716634e-05, Final residual = 5.7060604e-07, No Iterations 1
DILUPBiCG:  Solving for Uz, Initial residual = 0.17192998, Final residual = 2.1434797e-06, No Iterations 2
DILUPBiCG:  Solving for h, Initial residual = 0.055273847, Final residual = 1.8593771e-06, No Iterations 2
GAMG:  Solving for p_rgh, Initial residual = 0.0039018586, Final residual = 1.0246426e-06, No Iterations 4
time step continuity errors : sum local = 1.7052798e-05, global = -2.997851e-07, cumulative = -1.5667912e-05
ExecutionTime = 0.33 s  ClockTime = 0 s
Inflow      : -8.8635389e-08 [kg/s]
Outflow     : -8.888541e-08 [kg/s]
EnergyInflow  : -0.026188407 [W]
EnergyOutflow : -0.026249099 [W]
EnergyBalance : -6.069235e-05 [W]
rho max/avg/min : 1.2016451 1.177396 1.0338555
T   max/avg/min : 341.30711 300.16098 293.70003
P   max/avg/min : 101324.91 101316.16 101307.41
Prg max/avg/min : 101325 101324.82 101322.54
U   max/avg/min : 0.0020979064 0.00069325414 -0.00029097136
Prg max-min : 2.4550829
 
Iteration Number = 9

DILUPBiCG:  Solving for Ux, Initial residual = 0.20897659, Final residual = 4.4208243e-05, No Iterations 2
DILUPBiCG:  Solving for Uy, Initial residual = 9.9730629e-05, Final residual = 4.989172e-07, No Iterations 1
DILUPBiCG:  Solving for Uz, Initial residual = 0.16531471, Final residual = 2.753097e-06, No Iterations 2
DILUPBiCG:  Solving for h, Initial residual = 0.049321054, Final residual = 2.0684883e-06, No Iterations 2
GAMG:  Solving for p_rgh, Initial residual = 0.0037777471, Final residual = 1.4607107e-06, No Iterations 4
time step continuity errors : sum local = 2.7473411e-05, global = -8.2240322e-08, cumulative = -1.5750153e-05
ExecutionTime = 0.37 s  ClockTime = 0 s
Inflow      : -7.6059467e-08 [kg/s]
Outflow     : -7.6128055e-08 [kg/s]
EnergyInflow  : -0.022472697 [W]
EnergyOutflow : -0.022471666 [W]
EnergyBalance : 1.0315477e-06 [W]
rho max/avg/min : 1.2016451 1.1746226 1.0258141
T   max/avg/min : 343.98265 300.9378 293.70004
P   max/avg/min : 101324.91 101316.16 101307.41
Prg max/avg/min : 101325 101324.8 101322.43
U   max/avg/min : 0.0026610529 0.00099426639 -0.00028044345
Prg max-min : 2.5726855
 
Iteration Number = 10

DILUPBiCG:  Solving for Ux, Initial residual = 0.18788901, Final residual = 3.5512658e-05, No Iterations 2
DILUPBiCG:  Solving for Uy, Initial residual = 0.00013042622, Final residual = 4.5824047e-07, No Iterations 1
DILUPBiCG:  Solving for Uz, Initial residual = 0.15731211, Final residual = 2.8626297e-06, No Iterations 2
DILUPBiCG:  Solving for h, Initial residual = 0.044542953, Final residual = 2.3973611e-06, No Iterations 2
GAMG:  Solving for p_rgh, Initial residual = 0.003611351, Final residual = 1.6173434e-06, No Iterations 4
time step continuity errors : sum local = 3.3901889e-05, global = 1.2773459e-05, cumulative = -2.9766932e-06
ExecutionTime = 0.41 s  ClockTime = 0 s
Inflow      : -7.7399413e-08 [kg/s]
Outflow     : -6.6746355e-08 [kg/s]
EnergyInflow  : -0.022868601 [W]
EnergyOutflow : -0.01968777 [W]
EnergyBalance : 0.0031808307 [W]
rho max/avg/min : 1.201645 1.1718765 1.0184232
T   max/avg/min : 346.47897 301.71192 293.70006
P   max/avg/min : 101324.91 101316.16 101307.41
Prg max/avg/min : 101325 101324.78 101322.32
U   max/avg/min : 0.0033315539 0.001373993 -0.00030840107
Prg max-min : 2.6808701
 
Iteration Number = 11

DILUPBiCG:  Solving for Ux, Initial residual = 0.15054911, Final residual = 2.5407017e-05, No Iterations 2
DILUPBiCG:  Solving for Uy, Initial residual = 0.00019160476, Final residual = 5.8843197e-07, No Iterations 1
DILUPBiCG:  Solving for Uz, Initial residual = 0.15420777, Final residual = 3.0458256e-06, No Iterations 2
DILUPBiCG:  Solving for h, Initial residual = 0.040681506, Final residual = 3.6574328e-06, No Iterations 2
GAMG:  Solving for p_rgh, Initial residual = 0.0036067179, Final residual = 2.4502165e-06, No Iterations 4
time step continuity errors : sum local = 5.6608992e-05, global = 4.4943515e-06, cumulative = 1.5176583e-06
ExecutionTime = 0.45 s  ClockTime = 0 s
Inflow      : -6.5791544e-08 [kg/s]
Outflow     : -6.2043257e-08 [kg/s]
EnergyInflow  : -0.019438914 [W]
EnergyOutflow : -0.018280847 [W]
EnergyBalance : 0.0011580678 [W]
rho max/avg/min : 1.2016448 1.1691569 1.0115826
T   max/avg/min : 348.82197 302.48321 293.7001
P   max/avg/min : 101324.91 101316.16 101307.41
Prg max/avg/min : 101325 101324.76 101322.22
U   max/avg/min : 0.0041335606 0.0018458499 -0.00037564901
Prg max-min : 2.7808359
 
Iteration Number = 12

DILUPBiCG:  Solving for Ux, Initial residual = 0.14904618, Final residual = 2.6775315e-05, No Iterations 2
DILUPBiCG:  Solving for Uy, Initial residual = 0.00025612508, Final residual = 8.6093572e-07, No Iterations 1
DILUPBiCG:  Solving for Uz, Initial residual = 0.15185384, Final residual = 4.9016791e-06, No Iterations 2
DILUPBiCG:  Solving for h, Initial residual = 0.037431053, Final residual = 4.9019868e-06, No Iterations 2
GAMG:  Solving for p_rgh, Initial residual = 0.0036109058, Final residual = 2.7591568e-06, No Iterations 4
time step continuity errors : sum local = 6.9538843e-05, global = 3.2966616e-05, cumulative = 3.4484275e-05
ExecutionTime = 0.48 s  ClockTime = 0 s
Inflow      : -8.899433e-08 [kg/s]
Outflow     : -6.1500192e-08 [kg/s]
EnergyInflow  : -0.026294461 [W]
EnergyOutflow : -0.01809555 [W]
EnergyBalance : 0.0081989107 [W]
rho max/avg/min : 1.2016445 1.1664632 1.0052143
T   max/avg/min : 351.03184 303.25148 293.70017
P   max/avg/min : 101324.91 101316.16 101307.41
Prg max/avg/min : 101325 101324.74 101322.13
U   max/avg/min : 0.005089456 0.0024249053 -0.00054519999
Prg max-min : 2.8739917
 
Iteration Number = 13

DILUPBiCG:  Solving for Ux, Initial residual = 0.12838524, Final residual = 2.3862581e-05, No Iterations 2
DILUPBiCG:  Solving for Uy, Initial residual = 0.00035900884, Final residual = 2.1860166e-08, No Iterations 2
DILUPBiCG:  Solving for Uz, Initial residual = 0.14998619, Final residual = 5.3480254e-06, No Iterations 2
DILUPBiCG:  Solving for h, Initial residual = 0.034686625, Final residual = 7.5851608e-06, No Iterations 2
GAMG:  Solving for p_rgh, Initial residual = 0.0037150771, Final residual = 3.481663e-06, No Iterations 4
time step continuity errors : sum local = 9.4973153e-05, global = 6.8164741e-06, cumulative = 4.1300749e-05
ExecutionTime = 0.52 s  ClockTime = 1 s
Inflow      : -7.4304733e-08 [kg/s]
Outflow     : -6.8619797e-08 [kg/s]
EnergyInflow  : -0.02195424 [W]
EnergyOutflow : -0.020163838 [W]
EnergyBalance : 0.0017904018 [W]
rho max/avg/min : 1.2016438 1.1637949 0.99925695
T   max/avg/min : 353.12463 304.01657 293.70029
P   max/avg/min : 101324.91 101316.16 101307.41
Prg max/avg/min : 101325 101324.72 101322.04
U   max/avg/min : 0.0062385611 0.0031251869 -0.00077100638
Prg max-min : 2.9608967
 
Iteration Number = 14

DILUPBiCG:  Solving for Ux, Initial residual = 0.13529986, Final residual = 3.0103675e-05, No Iterations 2
DILUPBiCG:  Solving for Uy, Initial residual = 0.0005257038, Final residual = 3.2405104e-08, No Iterations 2
DILUPBiCG:  Solving for Uz, Initial residual = 0.14723082, Final residual = 7.8934014e-06, No Iterations 2
DILUPBiCG:  Solving for h, Initial residual = 0.032317957, Final residual = 9.4493211e-06, No Iterations 2
GAMG:  Solving for p_rgh, Initial residual = 0.0038612214, Final residual = 8.4442728e-07, No Iterations 5
time step continuity errors : sum local = 2.4762338e-05, global = 7.815322e-07, cumulative = 4.2082281e-05
ExecutionTime = 0.56 s  ClockTime = 1 s
Inflow      : -8.3468301e-08 [kg/s]
Outflow     : -8.2816504e-08 [kg/s]
EnergyInflow  : -0.024661728 [W]
EnergyOutflow : -0.024308566 [W]
EnergyBalance : 0.00035316215 [W]
rho max/avg/min : 1.201643 1.1611525 0.99366026
T   max/avg/min : 355.11357 304.7781 293.70049
P   max/avg/min : 101324.91 101316.16 101307.41
Prg max/avg/min : 101325 101324.7 101321.96
U   max/avg/min : 0.0076068909 0.0039639097 -0.0010905905
Prg max-min : 3.0426906
 
Iteration Number = 15

DILUPBiCG:  Solving for Ux, Initial residual = 0.13210619, Final residual = 3.2747505e-05, No Iterations 2
DILUPBiCG:  Solving for Uy, Initial residual = 0.00064270743, Final residual = 5.1949861e-08, No Iterations 2
DILUPBiCG:  Solving for Uz, Initial residual = 0.14330048, Final residual = 7.9262042e-06, No Iterations 2
DILUPBiCG:  Solving for h, Initial residual = 0.030228017, Final residual = 1.3625918e-05, No Iterations 2
GAMG:  Solving for p_rgh, Initial residual = 0.0044498926, Final residual = 1.4894863e-06, No Iterations 5
time step continuity errors : sum local = 4.6859444e-05, global = 1.5389404e-05, cumulative = 5.7471685e-05
ExecutionTime = 0.59 s  ClockTime = 1 s
Inflow      : -1.1469899e-07 [kg/s]
Outflow     : -1.0186424e-07 [kg/s]
EnergyInflow  : -0.033889217 [W]
EnergyOutflow : -0.029865628 [W]
EnergyBalance : 0.0040235885 [W]
rho max/avg/min : 1.2016413 1.1585365 0.9883832
T   max/avg/min : 357.00955 305.53572 293.70082
P   max/avg/min : 101324.91 101316.16 101307.41
Prg max/avg/min : 101325 101324.68 101321.88
U   max/avg/min : 0.0092372848 0.0049529316 -0.0015628759
Prg max-min : 3.1195008
 
Iteration Number = 16

DILUPBiCG:  Solving for Ux, Initial residual = 0.13895718, Final residual = 4.1166029e-05, No Iterations 2
DILUPBiCG:  Solving for Uy, Initial residual = 0.00093550346, Final residual = 9.9846158e-08, No Iterations 2
DILUPBiCG:  Solving for Uz, Initial residual = 0.13857269, Final residual = 1.0334944e-05, No Iterations 2
DILUPBiCG:  Solving for h, Initial residual = 0.028387285, Final residual = 2.0429471e-05, No Iterations 2
GAMG:  Solving for p_rgh, Initial residual = 0.0049035371, Final residual = 3.9464516e-06, No Iterations 4
time step continuity errors : sum local = 0.00013202941, global = 5.8900347e-05, cumulative = 0.00011637203
ExecutionTime = 0.63 s  ClockTime = 1 s
Inflow      : -1.8715947e-07 [kg/s]
Outflow     : -1.3803661e-07 [kg/s]
EnergyInflow  : -0.055298548 [W]
EnergyOutflow : -0.040453301 [W]
EnergyBalance : 0.014845247 [W]
rho max/avg/min : 1.2016386 1.1559475 0.98339162
T   max/avg/min : 358.82169 306.28908 293.7014
P   max/avg/min : 101324.91 101316.16 101307.41
Prg max/avg/min : 101325 101324.66 101321.81
U   max/avg/min : 0.011167495 0.00609791 -0.0022471051
Prg max-min : 3.1922312
 
Iteration Number = 17

DILUPBiCG:  Solving for Ux, Initial residual = 0.12349331, Final residual = 3.7905077e-05, No Iterations 2
DILUPBiCG:  Solving for Uy, Initial residual = 0.0011894308, Final residual = 1.5474408e-07, No Iterations 2
DILUPBiCG:  Solving for Uz, Initial residual = 0.13232995, Final residual = 1.1587789e-05, No Iterations 2
DILUPBiCG:  Solving for h, Initial residual = 0.026721483, Final residual = 2.1241942e-06, No Iterations 4
GAMG:  Solving for p_rgh, Initial residual = 0.0048575171, Final residual = 4.2718825e-06, No Iterations 4
time step continuity errors : sum local = 0.00015058667, global = 2.8798242e-05, cumulative = 0.00014517027
ExecutionTime = 0.66 s  ClockTime = 1 s
Inflow      : -1.9559806e-07 [kg/s]
Outflow     : -1.7158034e-07 [kg/s]
EnergyInflow  : -0.057791833 [W]
EnergyOutflow : -0.050221552 [W]
EnergyBalance : 0.007570281 [W]
rho max/avg/min : 1.201632 1.1533813 0.97865693
T   max/avg/min : 360.55765 307.03897 293.70264
P   max/avg/min : 101324.91 101316.16 101307.41
Prg max/avg/min : 101325 101324.65 101321.74
U   max/avg/min : 0.013447121 0.0074261638 -0.0029738446
Prg max-min : 3.2609625
 
Iteration Number = 18

DILUPBiCG:  Solving for Ux, Initial residual = 0.11707402, Final residual = 4.5077338e-05, No Iterations 2
DILUPBiCG:  Solving for Uy, Initial residual = 0.0015845673, Final residual = 2.7421975e-07, No Iterations 2
DILUPBiCG:  Solving for Uz, Initial residual = 0.12515727, Final residual = 1.0993076e-05, No Iterations 2
DILUPBiCG:  Solving for h, Initial residual = 0.025204372, Final residual = 3.5045542e-06, No Iterations 4
GAMG:  Solving for p_rgh, Initial residual = 0.0052570511, Final residual = 5.1651738e-06, No Iterations 4
time step continuity errors : sum local = 0.00019162155, global = 9.4953075e-05, cumulative = 0.00024012335
ExecutionTime = 0.7 s  ClockTime = 1 s
Inflow      : -2.9363627e-07 [kg/s]
Outflow     : -2.1444546e-07 [kg/s]
EnergyInflow  : -0.086758418 [W]
EnergyOutflow : -0.06268499 [W]
EnergyBalance : 0.024073428 [W]
rho max/avg/min : 1.2016233 1.1508429 0.97415428
T   max/avg/min : 362.22419 307.78405 293.70485
P   max/avg/min : 101324.91 101316.16 101307.41
Prg max/avg/min : 101325 101324.63 101321.67
U   max/avg/min : 0.016106574 0.0089290382 -0.0039785284
Prg max-min : 3.3266142
 
Iteration Number = 19

DILUPBiCG:  Solving for Ux, Initial residual = 0.11660138, Final residual = 5.1559813e-05, No Iterations 2
DILUPBiCG:  Solving for Uy, Initial residual = 0.0018205709, Final residual = 4.2282821e-07, No Iterations 2
DILUPBiCG:  Solving for Uz, Initial residual = 0.11793794, Final residual = 1.2894958e-05, No Iterations 2
DILUPBiCG:  Solving for h, Initial residual = 0.023811657, Final residual = 5.9537168e-06, No Iterations 4
GAMG:  Solving for p_rgh, Initial residual = 0.0058682291, Final residual = 5.5024267e-06, No Iterations 4
time step continuity errors : sum local = 0.00020961932, global = 2.609313e-05, cumulative = 0.00026621648
ExecutionTime = 0.74 s  ClockTime = 1 s
Inflow      : -2.6351149e-07 [kg/s]
Outflow     : -2.4174983e-07 [kg/s]
EnergyInflow  : -0.077857684 [W]
EnergyOutflow : -0.070465018 [W]
EnergyBalance : 0.0073926665 [W]
rho max/avg/min : 1.2016078 1.1483336 0.96986234
T   max/avg/min : 363.82715 308.52378 293.70882
P   max/avg/min : 101324.91 101316.16 101307.41
Prg max/avg/min : 101325 101324.61 101321.61
U   max/avg/min : 0.019219037 0.010647772 -0.0051052943
Prg max-min : 3.3890581
 
Iteration Number = 20

DILUPBiCG:  Solving for Ux, Initial residual = 0.11641317, Final residual = 6.6348934e-05, No Iterations 2
DILUPBiCG:  Solving for Uy, Initial residual = 0.0020667418, Final residual = 6.9041831e-07, No Iterations 2
DILUPBiCG:  Solving for Uz, Initial residual = 0.10917927, Final residual = 1.1729584e-05, No Iterations 2
DILUPBiCG:  Solving for h, Initial residual = 0.022532129, Final residual = 1.6066767e-05, No Iterations 4
GAMG:  Solving for p_rgh, Initial residual = 0.0069091684, Final residual = 1.8277792e-06, No Iterations 5
time step continuity errors : sum local = 7.2012666e-05, global = 2.0461803e-05, cumulative = 0.00028667828
ExecutionTime = 0.77 s  ClockTime = 1 s
Inflow      : -2.8707368e-07 [kg/s]
Outflow     : -2.7000855e-07 [kg/s]
EnergyInflow  : -0.084819422 [W]
EnergyOutflow : -0.078410362 [W]
EnergyBalance : 0.0064090597 [W]
rho max/avg/min : 1.2015993 1.1458511 0.96576204
T   max/avg/min : 365.37184 309.25858 293.71123
P   max/avg/min : 101324.91 101316.16 101307.41
Prg max/avg/min : 101325 101324.59 101321.55
U   max/avg/min : 0.022801031 0.012558226 -0.0066347608
Prg max-min : 3.4484692
 
Iteration Number = 21

DILUPBiCG:  Solving for Ux, Initial residual = 0.11541223, Final residual = 7.211442e-05, No Iterations 2
DILUPBiCG:  Solving for Uy, Initial residual = 0.0025814405, Final residual = 1.3726955e-06, No Iterations 2
DILUPBiCG:  Solving for Uz, Initial residual = 0.10202859, Final residual = 1.327393e-05, No Iterations 2
DILUPBiCG:  Solving for h, Initial residual = 0.021333296, Final residual = 4.5594281e-06, No Iterations 4
GAMG:  Solving for p_rgh, Initial residual = 0.0076938427, Final residual = 2.3149478e-06, No Iterations 5
time step continuity errors : sum local = 9.4155857e-05, global = 4.8013121e-05, cumulative = 0.0003346914
ExecutionTime = 0.81 s  ClockTime = 1 s
Inflow      : -3.3036825e-07 [kg/s]
Outflow     : -2.9032534e-07 [kg/s]
EnergyInflow  : -0.09761133 [W]
EnergyOutflow : -0.083856285 [W]
EnergyBalance : 0.013755045 [W]
rho max/avg/min : 1.2015951 1.1434041 0.96183792
T   max/avg/min : 366.8625 309.98614 293.71225
P   max/avg/min : 101324.91 101316.16 101307.41
Prg max/avg/min : 101325 101324.57 101321.5
U   max/avg/min : 0.026882815 0.014649684 -0.0083094597
Prg max-min : 3.5050254
 
Iteration Number = 22

DILUPBiCG:  Solving for Ux, Initial residual = 0.10878627, Final residual = 7.4585828e-05, No Iterations 2
DILUPBiCG:  Solving for Uy, Initial residual = 0.0032086197, Final residual = 4.2367216e-08, No Iterations 3
DILUPBiCG:  Solving for Uz, Initial residual = 0.093295351, Final residual = 1.3441131e-05, No Iterations 2
DILUPBiCG:  Solving for h, Initial residual = 0.020199127, Final residual = 5.9092061e-06, No Iterations 4
GAMG:  Solving for p_rgh, Initial residual = 0.0080213597, Final residual = 7.5621701e-06, No Iterations 4
time step continuity errors : sum local = 0.00031555762, global = 0.00010971499, cumulative = 0.00044440639
ExecutionTime = 0.85 s  ClockTime = 1 s
Inflow      : -3.3150319e-07 [kg/s]
Outflow     : -2.4000095e-07 [kg/s]
EnergyInflow  : -0.09794666 [W]
EnergyOutflow : -0.068238285 [W]
EnergyBalance : 0.029708375 [W]
rho max/avg/min : 1.2015914 1.1409924 0.95807566
T   max/avg/min : 368.30313 310.70637 293.71315
P   max/avg/min : 101324.91 101316.16 101307.41
Prg max/avg/min : 101325 101324.56 101321.44
U   max/avg/min : 0.0314849 0.016964206 -0.0098920769
Prg max-min : 3.5589198
 
Iteration Number = 23

DILUPBiCG:  Solving for Ux, Initial residual = 0.10660181, Final residual = 8.1821286e-05, No Iterations 2
DILUPBiCG:  Solving for Uy, Initial residual = 0.0033598446, Final residual = 9.0748822e-08, No Iterations 3
DILUPBiCG:  Solving for Uz, Initial residual = 0.085751629, Final residual = 1.4286801e-05, No Iterations 2
DILUPBiCG:  Solving for h, Initial residual = 0.019155843, Final residual = 6.7131696e-06, No Iterations 4
GAMG:  Solving for p_rgh, Initial residual = 0.0085465449, Final residual = 5.836859e-06, No Iterations 4
time step continuity errors : sum local = 0.00025155823, global = 2.6116882e-05, cumulative = 0.00047052327
ExecutionTime = 0.89 s  ClockTime = 1 s
Inflow      : -1.2622182e-07 [kg/s]
Outflow     : -1.0444036e-07 [kg/s]
EnergyInflow  : -0.037293778 [W]
EnergyOutflow : -0.027183594 [W]
EnergyBalance : 0.010110184 [W]
rho max/avg/min : 1.2015874 1.1386183 0.95446245
T   max/avg/min : 369.69738 311.41851 293.71414
P   max/avg/min : 101324.91 101316.16 101307.42
Prg max/avg/min : 101325 101324.54 101321.39
U   max/avg/min : 0.036615423 0.01950068 -0.011574112
Prg max-min : 3.6103693
 
Iteration Number = 24

DILUPBiCG:  Solving for Ux, Initial residual = 0.096640562, Final residual = 8.0038535e-05, No Iterations 2
DILUPBiCG:  Solving for Uy, Initial residual = 0.0038515428, Final residual = 9.7506283e-08, No Iterations 3
DILUPBiCG:  Solving for Uz, Initial residual = 0.079203395, Final residual = 1.5085113e-05, No Iterations 2
DILUPBiCG:  Solving for h, Initial residual = 0.018186098, Final residual = 6.1879585e-06, No Iterations 4
GAMG:  Solving for p_rgh, Initial residual = 0.0087244388, Final residual = 6.0266112e-06, No Iterations 4
time step continuity errors : sum local = 0.00027290838, global = 0.0001321018, cumulative = 0.00060262507
ExecutionTime = 0.93 s  ClockTime = 1 s
Inflow      : -5.152493e-08 [kg/s]
Outflow     : 5.8647889e-08 [kg/s]
EnergyInflow  : -0.015223669 [W]
EnergyOutflow : 0.022281302 [W]
EnergyBalance : 0.037504971 [W]
rho max/avg/min : 1.2015859 1.1362846 0.95098669
T   max/avg/min : 371.04859 312.12171 293.7145
P   max/avg/min : 101324.91 101316.16 101307.42
Prg max/avg/min : 101325 101324.52 101321.34
U   max/avg/min : 0.042312317 0.022192522 -0.013274529
Prg max-min : 3.6594617
 
Iteration Number = 25

DILUPBiCG:  Solving for Ux, Initial residual = 0.092162091, Final residual = 8.1186948e-05, No Iterations 2
DILUPBiCG:  Solving for Uy, Initial residual = 0.0049305791, Final residual = 1.3060577e-07, No Iterations 3
DILUPBiCG:  Solving for Uz, Initial residual = 0.073103717, Final residual = 1.5269609e-05, No Iterations 2
DILUPBiCG:  Solving for h, Initial residual = 0.017262454, Final residual = 6.201708e-06, No Iterations 4
GAMG:  Solving for p_rgh, Initial residual = 0.007805105, Final residual = 5.7383147e-06, No Iterations 4
time step continuity errors : sum local = 0.00027221764, global = 1.4160887e-05, cumulative = 0.00061678596
ExecutionTime = 0.96 s  ClockTime = 1 s
Inflow      : 3.2962358e-07 [kg/s]
Outflow     : 3.4143375e-07 [kg/s]
EnergyInflow  : 0.097391307 [W]
EnergyOutflow : 0.10743812 [W]
EnergyBalance : 0.010046812 [W]
rho max/avg/min : 1.2015829 1.1339934 0.94763901
T   max/avg/min : 372.35939 312.81536 293.71523
P   max/avg/min : 101324.91 101316.16 101307.42
Prg max/avg/min : 101325 101324.5 101321.29
U   max/avg/min : 0.048487663 0.025113216 -0.014821489
Prg max-min : 3.7066204
 
Iteration Number = 26

DILUPBiCG:  Solving for Ux, Initial residual = 0.081142568, Final residual = 7.5767145e-05, No Iterations 2
DILUPBiCG:  Solving for Uy, Initial residual = 0.0056068951, Final residual = 4.8768701e-06, No Iterations 2
DILUPBiCG:  Solving for Uz, Initial residual = 0.067984272, Final residual = 1.6131186e-05, No Iterations 2
DILUPBiCG:  Solving for h, Initial residual = 0.016420368, Final residual = 8.1393999e-06, No Iterations 4
GAMG:  Solving for p_rgh, Initial residual = 0.0079194379, Final residual = 4.2125022e-06, No Iterations 4
time step continuity errors : sum local = 0.00021347679, global = 1.8551433e-05, cumulative = 0.00063533739
ExecutionTime = 1.01 s  ClockTime = 1 s
Inflow      : 6.5372861e-07 [kg/s]
Outflow     : 6.692005e-07 [kg/s]
EnergyInflow  : 0.19315209 [W]
EnergyOutflow : 0.2062584 [W]
EnergyBalance : 0.013106302 [W]
rho max/avg/min : 1.2015831 1.1317478 0.94440951
T   max/avg/min : 373.63271 313.49847 293.71519
P   max/avg/min : 101324.91 101316.16 101307.42
Prg max/avg/min : 101325 101324.49 101321.25
U   max/avg/min : 0.055244921 0.028191598 -0.016113828
Prg max-min : 3.7519025
 
Iteration Number = 27

DILUPBiCG:  Solving for Ux, Initial residual = 0.07851704, Final residual = 7.8069851e-05, No Iterations 2
DILUPBiCG:  Solving for Uy, Initial residual = 0.0054963337, Final residual = 1.61879e-07, No Iterations 3
DILUPBiCG:  Solving for Uz, Initial residual = 0.062702759, Final residual = 1.5478025e-05, No Iterations 2
DILUPBiCG:  Solving for h, Initial residual = 0.015615229, Final residual = 7.2768565e-06, No Iterations 5
GAMG:  Solving for p_rgh, Initial residual = 0.0066090739, Final residual = 3.2261957e-06, No Iterations 4
time step continuity errors : sum local = 0.00017150392, global = -1.7042767e-05, cumulative = 0.00061829462
ExecutionTime = 1.04 s  ClockTime = 1 s
Inflow      : 1.1639081e-06 [kg/s]
Outflow     : 1.1496944e-06 [kg/s]
EnergyInflow  : 0.34389085 [W]
EnergyOutflow : 0.35064201 [W]
EnergyBalance : 0.0067511602 [W]
rho max/avg/min : 1.2015838 1.1295493 0.94129055
T   max/avg/min : 374.87075 314.17057 293.71502
P   max/avg/min : 101324.91 101316.16 101307.42
Prg max/avg/min : 101325 101324.47 101321.2
U   max/avg/min : 0.062455251 0.03145679 -0.017927538
Prg max-min : 3.7956963
 
Iteration Number = 28

DILUPBiCG:  Solving for Ux, Initial residual = 0.068312602, Final residual = 3.2419114e-06, No Iterations 3
DILUPBiCG:  Solving for Uy, Initial residual = 0.0057357331, Final residual = 4.7584295e-06, No Iterations 2
DILUPBiCG:  Solving for Uz, Initial residual = 0.058885489, Final residual = 1.5340994e-05, No Iterations 2
DILUPBiCG:  Solving for h, Initial residual = 0.014874937, Final residual = 6.5333138e-07, No Iterations 6
GAMG:  Solving for p_rgh, Initial residual = 0.0061148186, Final residual = 3.8114066e-06, No Iterations 4
time step continuity errors : sum local = 0.00020910382, global = 5.8846445e-05, cumulative = 0.00067714107
ExecutionTime = 1.08 s  ClockTime = 1 s
Inflow      : 1.6696411e-06 [kg/s]
Outflow     : 1.718719e-06 [kg/s]
EnergyInflow  : 0.49331582 [W]
EnergyOutflow : 0.52162412 [W]
EnergyBalance : 0.0283083 [W]
rho max/avg/min : 1.2015869 1.1274002 0.93827692
T   max/avg/min : 376.07479 314.83092 293.71425
P   max/avg/min : 101324.91 101316.17 101307.42
Prg max/avg/min : 101325 101324.46 101321.16
U   max/avg/min : 0.070098747 0.034872831 -0.019545956
Prg max-min : 3.8381638
 
Iteration Number = 29

DILUPBiCG:  Solving for Ux, Initial residual = 0.066837413, Final residual = 3.924764e-06, No Iterations 3
DILUPBiCG:  Solving for Uy, Initial residual = 0.0063166225, Final residual = 6.3721911e-07, No Iterations 3
DILUPBiCG:  Solving for Uz, Initial residual = 0.054325331, Final residual = 1.4191065e-05, No Iterations 2
DILUPBiCG:  Solving for h, Initial residual = 0.014179505, Final residual = 6.5144301e-06, No Iterations 5
GAMG:  Solving for p_rgh, Initial residual = 0.0066477902, Final residual = 3.0168748e-06, No Iterations 4
time step continuity errors : sum local = 0.00016529804, global = -2.9437107e-05, cumulative = 0.00064770396
ExecutionTime = 1.13 s  ClockTime = 1 s
Inflow      : 2.4695656e-06 [kg/s]
Outflow     : 2.445015e-06 [kg/s]
EnergyInflow  : 0.72966327 [W]
EnergyOutflow : 0.73966199 [W]
EnergyBalance : 0.0099987219 [W]
rho max/avg/min : 1.2016031 1.1253032 0.93536061
T   max/avg/min : 377.24735 315.47865 293.71031
P   max/avg/min : 101324.91 101316.16 101307.42
Prg max/avg/min : 101325 101324.44 101321.12
U   max/avg/min : 0.078197809 0.038466402 -0.020977033
Prg max-min : 3.8790979
 
Iteration Number = 30

DILUPBiCG:  Solving for Ux, Initial residual = 0.060224038, Final residual = 4.0941374e-06, No Iterations 3
DILUPBiCG:  Solving for Uy, Initial residual = 0.0078458994, Final residual = 3.2438899e-06, No Iterations 3
DILUPBiCG:  Solving for Uz, Initial residual = 0.052629641, Final residual = 1.3939673e-05, No Iterations 2
DILUPBiCG:  Solving for h, Initial residual = 0.013522541, Final residual = 8.6703438e-06, No Iterations 5
GAMG:  Solving for p_rgh, Initial residual = 0.0063381696, Final residual = 3.6385178e-06, No Iterations 4
time step continuity errors : sum local = 0.00018902055, global = 8.1858949e-05, cumulative = 0.00072956291
ExecutionTime = 1.17 s  ClockTime = 1 s
Inflow      : 3.2544627e-06 [kg/s]
Outflow     : 3.322733e-06 [kg/s]
EnergyInflow  : 0.96157072 [W]
EnergyOutflow : 1.0030151 [W]
EnergyBalance : 0.041444345 [W]
rho max/avg/min : 1.2016261 1.1232615 0.93253626
T   max/avg/min : 378.3899 316.11286 293.70467
P   max/avg/min : 101324.91 101316.17 101307.43
Prg max/avg/min : 101325 101324.42 101321.08
U   max/avg/min : 0.086763094 0.042193351 -0.022193814
Prg max-min : 3.9181973
 
Iteration Number = 31

DILUPBiCG:  Solving for Ux, Initial residual = 0.058231532, Final residual = 3.0608501e-06, No Iterations 3
DILUPBiCG:  Solving for Uy, Initial residual = 0.0085766186, Final residual = 5.1552844e-07, No Iterations 3
DILUPBiCG:  Solving for Uz, Initial residual = 0.048049082, Final residual = 1.2583114e-05, No Iterations 2
DILUPBiCG:  Solving for h, Initial residual = 0.012905276, Final residual = 1.1436482e-06, No Iterations 6
GAMG:  Solving for p_rgh, Initial residual = 0.0068186414, Final residual = 4.894928e-06, No Iterations 4
time step continuity errors : sum local = 0.00024256381, global = 3.6831383e-06, cumulative = 0.00073324605
ExecutionTime = 1.21 s  ClockTime = 1 s
Inflow      : 4.3768955e-06 [kg/s]
Outflow     : 4.3799672e-06 [kg/s]
EnergyInflow  : 1.2932072 [W]
EnergyOutflow : 1.3200002 [W]
EnergyBalance : 0.02679302 [W]
rho max/avg/min : 1.2016373 1.1212757 0.92980089
T   max/avg/min : 379.5031 316.73326 293.70193
P   max/avg/min : 101324.91 101316.16 101307.42
Prg max/avg/min : 101325 101324.41 101321.04
U   max/avg/min : 0.095689597 0.046084225 -0.02304757
Prg max-min : 3.9581346
 
Iteration Number = 32

DILUPBiCG:  Solving for Ux, Initial residual = 0.054750422, Final residual = 3.7115426e-06, No Iterations 3
DILUPBiCG:  Solving for Uy, Initial residual = 0.0094204388, Final residual = 4.0650791e-07, No Iterations 3
DILUPBiCG:  Solving for Uz, Initial residual = 0.048729782, Final residual = 1.2910426e-05, No Iterations 2
DILUPBiCG:  Solving for h, Initial residual = 0.012335723, Final residual = 3.8520848e-06, No Iterations 5
GAMG:  Solving for p_rgh, Initial residual = 0.009202551, Final residual = 3.6522018e-06, No Iterations 4
time step continuity errors : sum local = 0.00016927913, global = 5.4414146e-05, cumulative = 0.0007876602
ExecutionTime = 1.25 s  ClockTime = 1 s
Inflow      : 5.5583708e-06 [kg/s]
Outflow     : 5.6037521e-06 [kg/s]
EnergyInflow  : 1.6422885 [W]
EnergyOutflow : 1.6869591 [W]
EnergyBalance : 0.044670666 [W]
rho max/avg/min : 1.201643 1.119349 0.92714851
T   max/avg/min : 380.58877 317.33884 293.70055
P   max/avg/min : 101324.91 101316.17 101307.43
Prg max/avg/min : 101325 101324.39 101321.01
U   max/avg/min : 0.10497656 0.050090451 -0.023693135
Prg max-min : 3.9930386
 
Iteration Number = 33

DILUPBiCG:  Solving for Ux, Initial residual = 0.050938786, Final residual = 2.6904294e-06, No Iterations 3
DILUPBiCG:  Solving for Uy, Initial residual = 0.0099252432, Final residual = 6.583543e-07, No Iterations 3
DILUPBiCG:  Solving for Uz, Initial residual = 0.043704183, Final residual = 1.1461374e-05, No Iterations 2
DILUPBiCG:  Solving for h, Initial residual = 0.011787615, Final residual = 7.6469826e-06, No Iterations 5
GAMG:  Solving for p_rgh, Initial residual = 0.0096157922, Final residual = 6.1663436e-06, No Iterations 4
time step continuity errors : sum local = 0.00026924999, global = -1.1567108e-05, cumulative = 0.00077609309
ExecutionTime = 1.29 s  ClockTime = 1 s
Inflow      : 6.9856375e-06 [kg/s]
Outflow     : 6.9759906e-06 [kg/s]
EnergyInflow  : 2.0639918 [W]
EnergyOutflow : 2.098418 [W]
EnergyBalance : 0.034426141 [W]
rho max/avg/min : 1.201645 1.1174829 0.92457455
T   max/avg/min : 381.64832 317.92911 293.70006
P   max/avg/min : 101324.91 101316.16 101307.43
Prg max/avg/min : 101325 101324.38 101320.97
U   max/avg/min : 0.11458374 0.054219978 -0.023983575
Prg max-min : 4.0323153
 
Iteration Number = 34

DILUPBiCG:  Solving for Ux, Initial residual = 0.050888133, Final residual = 4.501837e-06, No Iterations 3
DILUPBiCG:  Solving for Uy, Initial residual = 0.009651966, Final residual = 1.6993792e-06, No Iterations 3
DILUPBiCG:  Solving for Uz, Initial residual = 0.045771212, Final residual = 1.3360441e-05, No Iterations 2
DILUPBiCG:  Solving for h, Initial residual = 0.011265976, Final residual = 3.2887563e-06, No Iterations 6
GAMG:  Solving for p_rgh, Initial residual = 0.011536573, Final residual = 6.5925951e-06, No Iterations 4
time step continuity errors : sum local = 0.0002725687, global = 0.00012585062, cumulative = 0.00090194371
ExecutionTime = 1.32 s  ClockTime = 1 s
Inflow      : 8.531082e-06 [kg/s]
Outflow     : 8.6360413e-06 [kg/s]
EnergyInflow  : 2.5206122 [W]
EnergyOutflow : 2.5956345 [W]
EnergyBalance : 0.075022249 [W]
rho max/avg/min : 1.2016456 1.1156788 0.92207713
T   max/avg/min : 382.682 318.50356 293.6999
P   max/avg/min : 101324.91 101316.17 101307.43
Prg max/avg/min : 101325 101324.36 101320.93
U   max/avg/min : 0.1244803 0.058483195 -0.02396636
Prg max-min : 4.0656591
 
Iteration Number = 35

DILUPBiCG:  Solving for Ux, Initial residual = 0.044572316, Final residual = 4.4084323e-06, No Iterations 3
DILUPBiCG:  Solving for Uy, Initial residual = 0.0098189391, Final residual = 4.7239153e-07, No Iterations 3
DILUPBiCG:  Solving for Uz, Initial residual = 0.042186076, Final residual = 1.2295461e-05, No Iterations 2
DILUPBiCG:  Solving for h, Initial residual = 0.010767115, Final residual = 3.8000146e-06, No Iterations 6
GAMG:  Solving for p_rgh, Initial residual = 0.014519082, Final residual = 7.2468449e-06, No Iterations 4
time step continuity errors : sum local = 0.00028249257, global = -4.2255207e-05, cumulative = 0.0008596885
ExecutionTime = 1.37 s  ClockTime = 1 s
Inflow      : 1.0445137e-05 [kg/s]
Outflow     : 1.0409897e-05 [kg/s]
EnergyInflow  : 3.0861433 [W]
EnergyOutflow : 3.1270686 [W]
EnergyBalance : 0.040925335 [W]
rho max/avg/min : 1.2016458 1.1139388 0.91965229
T   max/avg/min : 383.69103 319.06154 293.69972
P   max/avg/min : 101324.91 101316.16 101307.43
Prg max/avg/min : 101325 101324.35 101320.9
U   max/avg/min : 0.1346266 0.062845862 -0.023474498
Prg max-min : 4.1028691
 
Iteration Number = 36

DILUPBiCG:  Solving for Ux, Initial residual = 0.049428205, Final residual = 1.1633208e-05, No Iterations 3
DILUPBiCG:  Solving for Uy, Initial residual = 0.010208411, Final residual = 1.0181189e-05, No Iterations 2
DILUPBiCG:  Solving for Uz, Initial residual = 0.043133943, Final residual = 1.4962181e-05, No Iterations 2
DILUPBiCG:  Solving for h, Initial residual = 0.010269689, Final residual = 3.0542437e-06, No Iterations 6
GAMG:  Solving for p_rgh, Initial residual = 0.01743821, Final residual = 7.3169941e-06, No Iterations 4
time step continuity errors : sum local = 0.00026361647, global = 0.00015378439, cumulative = 0.0010134729
ExecutionTime = 1.4 s  ClockTime = 1 s
Inflow      : 1.2223037e-05 [kg/s]
Outflow     : 1.2351293e-05 [kg/s]
EnergyInflow  : 3.6114454 [W]
EnergyOutflow : 3.7090286 [W]
EnergyBalance : 0.097583189 [W]
rho max/avg/min : 1.2016459 1.1122642 0.91729575
T   max/avg/min : 384.67672 319.60253 293.69946
P   max/avg/min : 101324.91 101316.16 101307.43
Prg max/avg/min : 101325 101324.34 101320.87
U   max/avg/min : 0.1449837 0.067266414 -0.022847417
Prg max-min : 4.1344372
 
Iteration Number = 37

DILUPBiCG:  Solving for Ux, Initial residual = 0.038297885, Final residual = 6.5949227e-06, No Iterations 3
DILUPBiCG:  Solving for Uy, Initial residual = 0.010836211, Final residual = 6.4338072e-07, No Iterations 3
DILUPBiCG:  Solving for Uz, Initial residual = 0.039650124, Final residual = 1.3801526e-05, No Iterations 2
DILUPBiCG:  Solving for h, Initial residual = 0.0097908794, Final residual = 3.7915693e-06, No Iterations 6
GAMG:  Solving for p_rgh, Initial residual = 0.016894749, Final residual = 9.7989825e-06, No Iterations 4
time step continuity errors : sum local = 0.00033432074, global = -3.4998954e-05, cumulative = 0.00097847394
ExecutionTime = 1.45 s  ClockTime = 1 s
Inflow      : 1.4353497e-05 [kg/s]
Outflow     : 1.4324308e-05 [kg/s]
EnergyInflow  : 4.2409158 [W]
EnergyOutflow : 4.3007274 [W]
EnergyBalance : 0.059811587 [W]
rho max/avg/min : 1.2016459 1.1106562 0.91500561
T   max/avg/min : 385.63953 320.12612 293.69921
P   max/avg/min : 101324.91 101316.16 101307.43
Prg max/avg/min : 101325 101324.32 101320.83
U   max/avg/min : 0.15553526 0.071744066 -0.021850726
Prg max-min : 4.1700587
 
Iteration Number = 38

DILUPBiCG:  Solving for Ux, Initial residual = 0.046689848, Final residual = 9.3233428e-06, No Iterations 3
DILUPBiCG:  Solving for Uy, Initial residual = 0.01246272, Final residual = 1.0880216e-06, No Iterations 3
DILUPBiCG:  Solving for Uz, Initial residual = 0.039982011, Final residual = 1.72493e-05, No Iterations 2
DILUPBiCG:  Solving for h, Initial residual = 0.0093180655, Final residual = 6.1487621e-06, No Iterations 6
GAMG:  Solving for p_rgh, Initial residual = 0.018442027, Final residual = 5.7196018e-06, No Iterations 4
time step continuity errors : sum local = 0.00018742525, global = 4.8219627e-05, cumulative = 0.0010266936
ExecutionTime = 1.48 s  ClockTime = 1 s
Inflow      : 1.6692105e-05 [kg/s]
Outflow     : 1.673232e-05 [kg/s]
EnergyInflow  : 4.9318861 [W]
EnergyOutflow : 5.0217331 [W]
EnergyBalance : 0.089847 [W]
rho max/avg/min : 1.2016459 1.1091158 0.91277961
T   max/avg/min : 386.57998 320.6319 293.69887
P   max/avg/min : 101324.91 101316.16 101307.42
Prg max/avg/min : 101325 101324.31 101320.8
U   max/avg/min : 0.16627931 0.076381005 -0.020090148
Prg max-min : 4.203687
 
Iteration Number = 39

DILUPBiCG:  Solving for Ux, Initial residual = 0.034108715, Final residual = 2.1550754e-06, No Iterations 3
DILUPBiCG:  Solving for Uy, Initial residual = 0.014247702, Final residual = 2.5592204e-06, No Iterations 3
DILUPBiCG:  Solving for Uz, Initial residual = 0.039090266, Final residual = 1.8032259e-05, No Iterations 2
DILUPBiCG:  Solving for h, Initial residual = 0.0088497508, Final residual = 3.7989507e-06, No Iterations 7
GAMG:  Solving for p_rgh, Initial residual = 0.023109395, Final residual = 1.1117339e-05, No Iterations 4
time step continuity errors : sum local = 0.00034180506, global = 1.3784565e-05, cumulative = 0.0010404781
ExecutionTime = 1.52 s  ClockTime = 2 s
Inflow      : 1.8820514e-05 [kg/s]
Outflow     : 1.883201e-05 [kg/s]
EnergyInflow  : 5.5607505 [W]
EnergyOutflow : 5.651909 [W]
EnergyBalance : 0.091158528 [W]
rho max/avg/min : 1.2016459 1.1076465 0.91061429
T   max/avg/min : 387.49922 321.11879 293.69853
P   max/avg/min : 101324.91 101316.16 101307.43
Prg max/avg/min : 101325 101324.29 101320.77
U   max/avg/min : 0.17716184 0.080920624 -0.018807676
Prg max-min : 4.2324778
 
Iteration Number = 40

DILUPBiCG:  Solving for Ux, Initial residual = 0.039688524, Final residual = 1.3292519e-05, No Iterations 3
DILUPBiCG:  Solving for Uy, Initial residual = 0.014762056, Final residual = 4.9337104e-08, No Iterations 4
DILUPBiCG:  Solving for Uz, Initial residual = 0.034388495, Final residual = 1.5547444e-05, No Iterations 2
DILUPBiCG:  Solving for h, Initial residual = 0.0083925362, Final residual = 6.7966022e-06, No Iterations 6
GAMG:  Solving for p_rgh, Initial residual = 0.024252254, Final residual = 8.8809689e-06, No Iterations 4
time step continuity errors : sum local = 0.00026346512, global = 5.0662806e-05, cumulative = 0.0010911409
ExecutionTime = 1.56 s  ClockTime = 2 s
Inflow      : 2.1227568e-05 [kg/s]
Outflow     : 2.126982e-05 [kg/s]
EnergyInflow  : 6.2719438 [W]
EnergyOutflow : 6.3828728 [W]
EnergyBalance : 0.11092902 [W]
rho max/avg/min : 1.2016459 1.1062441 0.90850835
T   max/avg/min : 388.39745 321.58769 293.69818
P   max/avg/min : 101324.91 101316.16 101307.42
Prg max/avg/min : 101325 101324.28 101320.73
U   max/avg/min : 0.18817261 0.085570819 -0.016676785
Prg max-min : 4.2705698
 
Iteration Number = 41

DILUPBiCG:  Solving for Ux, Initial residual = 0.02820483, Final residual = 2.4334263e-06, No Iterations 3
DILUPBiCG:  Solving for Uy, Initial residual = 0.015724015, Final residual = 7.1036538e-07, No Iterations 3
DILUPBiCG:  Solving for Uz, Initial residual = 0.036938736, Final residual = 2.0021531e-05, No Iterations 2
DILUPBiCG:  Solving for h, Initial residual = 0.0079315014, Final residual = 7.4839142e-06, No Iterations 5
GAMG:  Solving for p_rgh, Initial residual = 0.026566964, Final residual = 2.438927e-05, No Iterations 3
time step continuity errors : sum local = 0.00069476494, global = -3.8113799e-05, cumulative = 0.0010530271
ExecutionTime = 1.6 s  ClockTime = 2 s
Inflow      : 2.3818813e-05 [kg/s]
Outflow     : 2.3787026e-05 [kg/s]
EnergyInflow  : 7.037559 [W]
EnergyOutflow : 7.1377396 [W]
EnergyBalance : 0.10018062 [W]
rho max/avg/min : 1.2016459 1.1049108 0.90645967
T   max/avg/min : 389.27524 322.03801 293.69777
P   max/avg/min : 101324.91 101316.16 101307.42
Prg max/avg/min : 101325 101324.27 101320.7
U   max/avg/min : 0.19939327 0.090290807 -0.014135969
Prg max-min : 4.2990887
 
Iteration Number = 42

DILUPBiCG:  Solving for Ux, Initial residual = 0.030504204, Final residual = 1.688104e-06, No Iterations 3
DILUPBiCG:  Solving for Uy, Initial residual = 0.016652337, Final residual = 2.2904041e-06, No Iterations 3
DILUPBiCG:  Solving for Uz, Initial residual = 0.032652788, Final residual = 1.5981692e-05, No Iterations 2
DILUPBiCG:  Solving for h, Initial residual = 0.0074735934, Final residual = 4.9260864e-06, No Iterations 6
GAMG:  Solving for p_rgh, Initial residual = 0.025730615, Final residual = 1.0566112e-05, No Iterations 4
time step continuity errors : sum local = 0.00027933924, global = 6.7487954e-05, cumulative = 0.0011205151
ExecutionTime = 1.64 s  ClockTime = 2 s
Inflow      : 2.6502298e-05 [kg/s]
Outflow     : 2.6558583e-05 [kg/s]
EnergyInflow  : 7.8304273 [W]
EnergyOutflow : 7.9679718 [W]
EnergyBalance : 0.13754451 [W]
rho max/avg/min : 1.2016459 1.1036405 0.90446667
T   max/avg/min : 390.13302 322.47112 293.69737
P   max/avg/min : 101324.91 101316.15 101307.41
Prg max/avg/min : 101325 101324.25 101320.66
U   max/avg/min : 0.21081913 0.095122682 -0.011097768
Prg max-min : 4.3383652
 
Iteration Number = 43

DILUPBiCG:  Solving for Ux, Initial residual = 0.041176434, Final residual = 4.0624467e-05, No Iterations 2
DILUPBiCG:  Solving for Uy, Initial residual = 0.016003868, Final residual = 5.8718692e-06, No Iterations 3
DILUPBiCG:  Solving for Uz, Initial residual = 0.035221738, Final residual = 1.8790602e-05, No Iterations 2
DILUPBiCG:  Solving for h, Initial residual = 0.007014527, Final residual = 6.957508e-06, No Iterations 5
GAMG:  Solving for p_rgh, Initial residual = 0.025077952, Final residual = 1.0689203e-05, No Iterations 4
time step continuity errors : sum local = 0.00026339696, global = -6.7643733e-05, cumulative = 0.0010528714
ExecutionTime = 1.68 s  ClockTime = 2 s
Inflow      : 2.8811775e-05 [kg/s]
Outflow     : 2.875536e-05 [kg/s]
EnergyInflow  : 8.5127904 [W]
EnergyOutflow : 8.6281467 [W]
EnergyBalance : 0.11535629 [W]
rho max/avg/min : 1.2016459 1.1024375 0.90252732
T   max/avg/min : 390.97129 322.88575 293.69692
P   max/avg/min : 101324.91 101316.16 101307.41
Prg max/avg/min : 101325 101324.24 101320.64
U   max/avg/min : 0.2223932 0.099832902 -0.0087123043
Prg max-min : 4.3598929
 
Iteration Number = 44

DILUPBiCG:  Solving for Ux, Initial residual = 0.033024113, Final residual = 1.6126575e-06, No Iterations 3
DILUPBiCG:  Solving for Uy, Initial residual = 0.016042371, Final residual = 3.4462439e-06, No Iterations 3
DILUPBiCG:  Solving for Uz, Initial residual = 0.028023631, Final residual = 1.2133359e-05, No Iterations 2
DILUPBiCG:  Solving for h, Initial residual = 0.0066075165, Final residual = 6.1587718e-06, No Iterations 6
GAMG:  Solving for p_rgh, Initial residual = 0.018143658, Final residual = 9.4615086e-06, No Iterations 4
time step continuity errors : sum local = 0.0002219417, global = 8.4965086e-05, cumulative = 0.0011378364
ExecutionTime = 1.72 s  ClockTime = 2 s
Inflow      : 3.1065171e-05 [kg/s]
Outflow     : 3.1136032e-05 [kg/s]
EnergyInflow  : 9.1785837 [W]
EnergyOutflow : 9.3424325 [W]
EnergyBalance : 0.1638488 [W]
rho max/avg/min : 1.2016459 1.1012946 0.90064015
T   max/avg/min : 391.79055 323.28364 293.69651
P   max/avg/min : 101324.91 101316.15 101307.4
Prg max/avg/min : 101325 101324.23 101320.6
U   max/avg/min : 0.2341088 0.10452243 -0.0048022889
Prg max-min : 4.3998654
 
Iteration Number = 45

DILUPBiCG:  Solving for Ux, Initial residual = 0.035178646, Final residual = 7.9543586e-06, No Iterations 3
DILUPBiCG:  Solving for Uy, Initial residual = 0.015637705, Final residual = 1.5415031e-06, No Iterations 3
DILUPBiCG:  Solving for Uz, Initial residual = 0.031357987, Final residual = 1.5734853e-05, No Iterations 2
DILUPBiCG:  Solving for h, Initial residual = 0.006237665, Final residual = 8.553741e-07, No Iterations 7
GAMG:  Solving for p_rgh, Initial residual = 0.025882209, Final residual = 1.7159995e-05, No Iterations 3
time step continuity errors : sum local = 0.00038754105, global = -5.7203551e-05, cumulative = 0.0010806329
ExecutionTime = 1.76 s  ClockTime = 2 s
Inflow      : 3.3622251e-05 [kg/s]
Outflow     : 3.3574543e-05 [kg/s]
EnergyInflow  : 9.9341042 [W]
EnergyOutflow : 10.073854 [W]
EnergyBalance : 0.13974946 [W]
rho max/avg/min : 1.2016459 1.1002084 0.89880264
T   max/avg/min : 392.59148 323.66554 293.69602
P   max/avg/min : 101324.91 101316.15 101307.4
Prg max/avg/min : 101325 101324.22 101320.57
U   max/avg/min : 0.24600996 0.10933492 -0.00076388855
Prg max-min : 4.4274248
 
Iteration Number = 46

DILUPBiCG:  Solving for Ux, Initial residual = 0.032860873, Final residual = 2.4077063e-06, No Iterations 3
DILUPBiCG:  Solving for Uy, Initial residual = 0.015318007, Final residual = 8.0270704e-07, No Iterations 3
DILUPBiCG:  Solving for Uz, Initial residual = 0.028641647, Final residual = 1.3795579e-05, No Iterations 2
DILUPBiCG:  Solving for h, Initial residual = 0.005867512, Final residual = 4.2755258e-06, No Iterations 5
GAMG:  Solving for p_rgh, Initial residual = 0.013023997, Final residual = 5.3960507e-06, No Iterations 4
time step continuity errors : sum local = 0.00011679109, global = -3.7372688e-05, cumulative = 0.0010432602
ExecutionTime = 1.8 s  ClockTime = 2 s
Inflow      : 3.5463353e-05 [kg/s]
Outflow     : 3.5432184e-05 [kg/s]
EnergyInflow  : 10.47808 [W]
EnergyOutflow : 10.632829 [W]
EnergyBalance : 0.1547485 [W]
rho max/avg/min : 1.2016459 1.099178 0.8970136
T   max/avg/min : 393.37447 324.03154 293.69553
P   max/avg/min : 101324.91 101316.15 101307.41
Prg max/avg/min : 101325 101324.21 101320.55
U   max/avg/min : 0.25796426 0.11385074 0
Prg max-min : 4.4477074
 
Iteration Number = 47

DILUPBiCG:  Solving for Ux, Initial residual = 0.036851336, Final residual = 1.9767765e-06, No Iterations 3
DILUPBiCG:  Solving for Uy, Initial residual = 0.015853201, Final residual = 8.1269526e-07, No Iterations 3
DILUPBiCG:  Solving for Uz, Initial residual = 0.023080364, Final residual = 9.2930006e-06, No Iterations 2
DILUPBiCG:  Solving for h, Initial residual = 0.005554872, Final residual = 2.1581754e-06, No Iterations 6
GAMG:  Solving for p_rgh, Initial residual = 0.012046857, Final residual = 9.2952361e-06, No Iterations 4
time step continuity errors : sum local = 0.00019680341, global = 4.3365432e-05, cumulative = 0.0010866256
ExecutionTime = 1.85 s  ClockTime = 2 s
Inflow      : 3.7058306e-05 [kg/s]
Outflow     : 3.7094473e-05 [kg/s]
EnergyInflow  : 10.949329 [W]
EnergyOutflow : 11.133309 [W]
EnergyBalance : 0.18398078 [W]
rho max/avg/min : 1.2016458 1.0981997 0.8952719
T   max/avg/min : 394.13978 324.38249 293.69509
P   max/avg/min : 101324.91 101316.15 101307.4
Prg max/avg/min : 101325 101324.2 101320.52
U   max/avg/min : 0.26999544 0.11824716 0
Prg max-min : 4.4806959
 
Iteration Number = 48

DILUPBiCG:  Solving for Ux, Initial residual = 0.030463335, Final residual = 1.2005959e-06, No Iterations 3
DILUPBiCG:  Solving for Uy, Initial residual = 0.01507848, Final residual = 2.1974169e-06, No Iterations 3
DILUPBiCG:  Solving for Uz, Initial residual = 0.02412894, Final residual = 1.0907979e-05, No Iterations 2
DILUPBiCG:  Solving for h, Initial residual = 0.0052651408, Final residual = 4.1539978e-06, No Iterations 6
GAMG:  Solving for p_rgh, Initial residual = 0.010963103, Final residual = 6.2106761e-06, No Iterations 4
time step continuity errors : sum local = 0.00013020875, global = -2.6771109e-05, cumulative = 0.0010598545
ExecutionTime = 1.88 s  ClockTime = 2 s
Inflow      : 3.8650648e-05 [kg/s]
Outflow     : 3.8628321e-05 [kg/s]
EnergyInflow  : 11.419806 [W]
EnergyOutflow : 11.595079 [W]
EnergyBalance : 0.17527342 [W]
rho max/avg/min : 1.2016458 1.0972694 0.8935777
T   max/avg/min : 394.88703 324.71925 293.69458
P   max/avg/min : 101324.91 101316.15 101307.4
Prg max/avg/min : 101325 101324.2 101320.49
U   max/avg/min : 0.28210718 0.1226114 0
Prg max-min : 4.5036117
 
Iteration Number = 49

DILUPBiCG:  Solving for Ux, Initial residual = 0.03303549, Final residual = 2.607027e-05, No Iterations 2
DILUPBiCG:  Solving for Uy, Initial residual = 0.015171625, Final residual = 3.1342576e-06, No Iterations 3
DILUPBiCG:  Solving for Uz, Initial residual = 0.021138392, Final residual = 8.6840501e-06, No Iterations 2
DILUPBiCG:  Solving for h, Initial residual = 0.0049858434, Final residual = 2.8292752e-06, No Iterations 6
GAMG:  Solving for p_rgh, Initial residual = 0.010269364, Final residual = 5.1314302e-06, No Iterations 4
time step continuity errors : sum local = 0.00010598619, global = -3.9710039e-05, cumulative = 0.0010201445
ExecutionTime = 1.92 s  ClockTime = 2 s
Inflow      : 3.9899436e-05 [kg/s]
Outflow     : 3.9866318e-05 [kg/s]
EnergyInflow  : 11.788775 [W]
EnergyOutflow : 11.968588 [W]
EnergyBalance : 0.17981311 [W]
rho max/avg/min : 1.2016458 1.0963852 0.89192583
T   max/avg/min : 395.61838 325.04233 293.69409
P   max/avg/min : 101324.91 101316.15 101307.4
Prg max/avg/min : 101325 101324.19 101320.47
U   max/avg/min : 0.29427263 0.1267875 0
Prg max-min : 4.5271437
 
Iteration Number = 50

DILUPBiCG:  Solving for Ux, Initial residual = 0.028115929, Final residual = 2.4767104e-05, No Iterations 2
DILUPBiCG:  Solving for Uy, Initial residual = 0.016347102, Final residual = 1.3316273e-06, No Iterations 3
DILUPBiCG:  Solving for Uz, Initial residual = 0.019248693, Final residual = 8.1153366e-06, No Iterations 2
DILUPBiCG:  Solving for h, Initial residual = 0.0047315503, Final residual = 4.0926382e-06, No Iterations 5
GAMG:  Solving for p_rgh, Initial residual = 0.010545669, Final residual = 5.9362116e-06, No Iterations 4
time step continuity errors : sum local = 0.00012162741, global = -4.5564213e-06, cumulative = 0.0010155881
ExecutionTime = 1.96 s  ClockTime = 2 s
Inflow      : 4.0853429e-05 [kg/s]
Outflow     : 4.0849629e-05 [kg/s]
EnergyInflow  : 12.070644 [W]
EnergyOutflow : 12.266062 [W]
EnergyBalance : 0.19541795 [W]
rho max/avg/min : 1.2016458 1.0955428 0.89031841
T   max/avg/min : 396.33265 325.35269 293.69359
P   max/avg/min : 101324.91 101316.15 101307.4
Prg max/avg/min : 101325 101324.18 101320.45
U   max/avg/min : 0.30648744 0.13081876 0
Prg max-min : 4.5502072
 
Iteration Number = 51

DILUPBiCG:  Solving for Ux, Initial residual = 0.029545902, Final residual = 2.3080773e-05, No Iterations 2
DILUPBiCG:  Solving for Uy, Initial residual = 0.016806856, Final residual = 1.2350536e-06, No Iterations 3
DILUPBiCG:  Solving for Uz, Initial residual = 0.017551503, Final residual = 7.1817322e-06, No Iterations 2
DILUPBiCG:  Solving for h, Initial residual = 0.0044941539, Final residual = 3.1446298e-06, No Iterations 5
GAMG:  Solving for p_rgh, Initial residual = 0.0099174024, Final residual = 9.616839e-06, No Iterations 3
time step continuity errors : sum local = 0.00019617577, global = -4.0062695e-05, cumulative = 0.00097552537
ExecutionTime = 2 s  ClockTime = 2 s
Inflow      : 4.1710166e-05 [kg/s]
Outflow     : 4.1676754e-05 [kg/s]
EnergyInflow  : 12.323777 [W]
EnergyOutflow : 12.516786 [W]
EnergyBalance : 0.19300861 [W]
rho max/avg/min : 1.2016458 1.0947406 0.88875251
T   max/avg/min : 397.03095 325.65068 293.6931
P   max/avg/min : 101324.91 101316.15 101307.4
Prg max/avg/min : 101325 101324.17 101320.42
U   max/avg/min : 0.31875313 0.13473525 0
Prg max-min : 4.5736027
 
Iteration Number = 52

DILUPBiCG:  Solving for Ux, Initial residual = 0.027084761, Final residual = 2.5217529e-05, No Iterations 2
DILUPBiCG:  Solving for Uy, Initial residual = 0.017339049, Final residual = 1.9632118e-06, No Iterations 3
DILUPBiCG:  Solving for Uz, Initial residual = 0.016536579, Final residual = 7.0305447e-06, No Iterations 2
DILUPBiCG:  Solving for h, Initial residual = 0.0042713711, Final residual = 2.1676269e-06, No Iterations 5
GAMG:  Solving for p_rgh, Initial residual = 0.0096561845, Final residual = 3.9441842e-06, No Iterations 4
time step continuity errors : sum local = 8.0244776e-05, global = -2.1932507e-05, cumulative = 0.00095359286
ExecutionTime = 2.03 s  ClockTime = 2 s
Inflow      : 4.239784e-05 [kg/s]
Outflow     : 4.2379548e-05 [kg/s]
EnergyInflow  : 12.526959 [W]
EnergyOutflow : 12.730313 [W]
EnergyBalance : 0.20335402 [W]
rho max/avg/min : 1.2016458 1.0939766 0.8872267
T   max/avg/min : 397.71374 325.93676 293.69259
P   max/avg/min : 101324.91 101316.15 101307.4
Prg max/avg/min : 101325 101324.17 101320.4
U   max/avg/min : 0.33108454 0.13852103 0
Prg max-min : 4.59392
 
Iteration Number = 53

DILUPBiCG:  Solving for Ux, Initial residual = 0.02619903, Final residual = 2.2238425e-05, No Iterations 2
DILUPBiCG:  Solving for Uy, Initial residual = 0.01934064, Final residual = 1.3895472e-06, No Iterations 3
DILUPBiCG:  Solving for Uz, Initial residual = 0.015006193, Final residual = 6.1090478e-06, No Iterations 2
DILUPBiCG:  Solving for h, Initial residual = 0.0040640535, Final residual = 2.1194344e-06, No Iterations 5
GAMG:  Solving for p_rgh, Initial residual = 0.009363027, Final residual = 5.270615e-06, No Iterations 4
time step continuity errors : sum local = 0.00010691531, global = -4.3419123e-06, cumulative = 0.00094925095
ExecutionTime = 2.06 s  ClockTime = 2 s
Inflow      : 4.30662e-05 [kg/s]
Outflow     : 4.3062579e-05 [kg/s]
EnergyInflow  : 12.724434 [W]
EnergyOutflow : 12.937698 [W]
EnergyBalance : 0.21326408 [W]
rho max/avg/min : 1.2016458 1.0932489 0.88574032
T   max/avg/min : 398.38116 326.21138 293.69212
P   max/avg/min : 101324.91 101316.15 101307.4
Prg max/avg/min : 101325 101324.16 101320.38
U   max/avg/min : 0.34347551 0.14223643 0
Prg max-min : 4.6190353
 
Iteration Number = 54

DILUPBiCG:  Solving for Ux, Initial residual = 0.025152653, Final residual = 4.6738901e-06, No Iterations 3
DILUPBiCG:  Solving for Uy, Initial residual = 0.018263561, Final residual = 1.5180499e-05, No Iterations 3
DILUPBiCG:  Solving for Uz, Initial residual = 0.014836701, Final residual = 6.3371252e-06, No Iterations 2
DILUPBiCG:  Solving for h, Initial residual = 0.0038672193, Final residual = 2.43497e-06, No Iterations 5
GAMG:  Solving for p_rgh, Initial residual = 0.0090861638, Final residual = 4.437969e-06, No Iterations 4
time step continuity errors : sum local = 9.0022722e-05, global = -1.9399326e-05, cumulative = 0.00092985163
ExecutionTime = 2.11 s  ClockTime = 2 s
Inflow      : 4.3666906e-05 [kg/s]
Outflow     : 4.3650726e-05 [kg/s]
EnergyInflow  : 12.90192 [W]
EnergyOutflow : 13.116785 [W]
EnergyBalance : 0.21486487 [W]
rho max/avg/min : 1.2016458 1.0925558 0.88429264
T   max/avg/min : 399.03334 326.47491 293.6916
P   max/avg/min : 101324.91 101316.15 101307.4
Prg max/avg/min : 101325 101324.16 101320.36
U   max/avg/min : 0.3558641 0.14587022 0
Prg max-min : 4.6372812
 
Iteration Number = 55

DILUPBiCG:  Solving for Ux, Initial residual = 0.024452337, Final residual = 2.1131303e-05, No Iterations 2
DILUPBiCG:  Solving for Uy, Initial residual = 0.018787264, Final residual = 4.8863608e-06, No Iterations 3
DILUPBiCG:  Solving for Uz, Initial residual = 0.013376577, Final residual = 5.5114777e-06, No Iterations 2
DILUPBiCG:  Solving for h, Initial residual = 0.0036819212, Final residual = 2.5036537e-06, No Iterations 5
GAMG:  Solving for p_rgh, Initial residual = 0.0087966609, Final residual = 2.7143616e-06, No Iterations 4
time step continuity errors : sum local = 5.4893896e-05, global = 9.8773688e-07, cumulative = 0.00093083936
ExecutionTime = 2.15 s  ClockTime = 2 s
Inflow      : 4.4236339e-05 [kg/s]
Outflow     : 4.4237163e-05 [kg/s]
EnergyInflow  : 13.070166 [W]
EnergyOutflow : 13.295203 [W]
EnergyBalance : 0.22503701 [W]
rho max/avg/min : 1.2016458 1.0918961 0.88288252
T   max/avg/min : 399.67068 326.72769 293.69113
P   max/avg/min : 101324.91 101316.15 101307.4
Prg max/avg/min : 101325 101324.15 101320.34
U   max/avg/min : 0.36830012 0.14941924 0
Prg max-min : 4.6607239
 
Iteration Number = 56

DILUPBiCG:  Solving for Ux, Initial residual = 0.022855802, Final residual = 1.9825533e-05, No Iterations 2
DILUPBiCG:  Solving for Uy, Initial residual = 0.019283741, Final residual = 1.9282528e-06, No Iterations 3
DILUPBiCG:  Solving for Uz, Initial residual = 0.013207278, Final residual = 5.6337191e-06, No Iterations 2
DILUPBiCG:  Solving for h, Initial residual = 0.0035078645, Final residual = 2.6250944e-06, No Iterations 5
GAMG:  Solving for p_rgh, Initial residual = 0.0084030312, Final residual = 4.2482185e-06, No Iterations 4
time step continuity errors : sum local = 8.5895346e-05, global = 1.8405933e-06, cumulative = 0.00093267996
ExecutionTime = 2.18 s  ClockTime = 2 s
Inflow      : 4.4751041e-05 [kg/s]
Outflow     : 4.4752576e-05 [kg/s]
EnergyInflow  : 13.222241 [W]
EnergyOutflow : 13.45249 [W]
EnergyBalance : 0.23024857 [W]
rho max/avg/min : 1.2016458 1.0912683 0.88150884
T   max/avg/min : 400.29349 326.97004 293.69063
P   max/avg/min : 101324.91 101316.15 101307.4
Prg max/avg/min : 101325 101324.15 101320.32
U   max/avg/min : 0.38077627 0.15289255 0
Prg max-min : 4.6782025
 
Iteration Number = 57

DILUPBiCG:  Solving for Ux, Initial residual = 0.022455563, Final residual = 1.8911577e-05, No Iterations 2
DILUPBiCG:  Solving for Uy, Initial residual = 0.020669334, Final residual = 7.6820533e-06, No Iterations 3
DILUPBiCG:  Solving for Uz, Initial residual = 0.012073787, Final residual = 5.0035807e-06, No Iterations 2
DILUPBiCG:  Solving for h, Initial residual = 0.0033443186, Final residual = 2.7849788e-06, No Iterations 5
GAMG:  Solving for p_rgh, Initial residual = 0.0080947825, Final residual = 1.9436632e-06, No Iterations 4
time step continuity errors : sum local = 3.9187529e-05, global = 8.7640734e-06, cumulative = 0.00094144403
ExecutionTime = 2.22 s  ClockTime = 2 s
Inflow      : 4.5252636e-05 [kg/s]
Outflow     : 4.5259945e-05 [kg/s]
EnergyInflow  : 13.370443 [W]
EnergyOutflow : 13.607294 [W]
EnergyBalance : 0.23685112 [W]
rho max/avg/min : 1.2016458 1.0906713 0.88017086
T   max/avg/min : 400.902 327.20228 293.69018
P   max/avg/min : 101324.91 101316.15 101307.4
Prg max/avg/min : 101325 101324.14 101320.3
U   max/avg/min : 0.39315477 0.1562854 0
Prg max-min : 4.7000434
 
Iteration Number = 58

DILUPBiCG:  Solving for Ux, Initial residual = 0.021243921, Final residual = 1.6174784e-05, No Iterations 2
DILUPBiCG:  Solving for Uy, Initial residual = 0.021921825, Final residual = 2.4216158e-06, No Iterations 3
DILUPBiCG:  Solving for Uz, Initial residual = 0.01191911, Final residual = 5.1168916e-06, No Iterations 2
DILUPBiCG:  Solving for h, Initial residual = 0.0031906388, Final residual = 2.8335815e-06, No Iterations 5
GAMG:  Solving for p_rgh, Initial residual = 0.0077069113, Final residual = 2.6877499e-06, No Iterations 4
time step continuity errors : sum local = 5.416345e-05, global = 7.6042945e-06, cumulative = 0.00094904832
ExecutionTime = 2.26 s  ClockTime = 2 s
Inflow      : 4.5688063e-05 [kg/s]
Outflow     : 4.5694405e-05 [kg/s]
EnergyInflow  : 13.499096 [W]
EnergyOutflow : 13.740438 [W]
EnergyBalance : 0.24134222 [W]
rho max/avg/min : 1.2016458 1.0901038 0.87886753
T   max/avg/min : 401.49652 327.42473 293.68972
P   max/avg/min : 101324.91 101316.15 101307.4
Prg max/avg/min : 101325 101324.14 101320.28
U   max/avg/min : 0.40541251 0.15959782 0
Prg max-min : 4.7163427
 
Iteration Number = 59

DILUPBiCG:  Solving for Ux, Initial residual = 0.020364566, Final residual = 1.6910031e-05, No Iterations 2
DILUPBiCG:  Solving for Uy, Initial residual = 0.021274842, Final residual = 1.1240641e-06, No Iterations 3
DILUPBiCG:  Solving for Uz, Initial residual = 0.010951521, Final residual = 4.5691033e-06, No Iterations 2
DILUPBiCG:  Solving for h, Initial residual = 0.0030463263, Final residual = 2.8342555e-06, No Iterations 5
GAMG:  Solving for p_rgh, Initial residual = 0.0073616009, Final residual = 1.5319899e-06, No Iterations 4
time step continuity errors : sum local = 3.0785329e-05, global = 8.2040532e-06, cumulative = 0.00095725238
ExecutionTime = 2.29 s  ClockTime = 2 s
Inflow      : 4.6105864e-05 [kg/s]
Outflow     : 4.6112706e-05 [kg/s]
EnergyInflow  : 13.62254 [W]
EnergyOutflow : 13.868707 [W]
EnergyBalance : 0.24616741 [W]
rho max/avg/min : 1.2016458 1.0895646 0.87759813
T   max/avg/min : 402.07727 327.63768 293.68932
P   max/avg/min : 101324.91 101316.15 101307.4
Prg max/avg/min : 101325 101324.13 101320.26
U   max/avg/min : 0.41758295 0.1628328 0
Prg max-min : 4.7371273
 
Iteration Number = 60

DILUPBiCG:  Solving for Ux, Initial residual = 0.019584831, Final residual = 1.5291628e-05, No Iterations 2
DILUPBiCG:  Solving for Uy, Initial residual = 0.021558078, Final residual = 9.8769675e-07, No Iterations 3
DILUPBiCG:  Solving for Uz, Initial residual = 0.010830343, Final residual = 4.6736481e-06, No Iterations 2
DILUPBiCG:  Solving for h, Initial residual = 0.0029107272, Final residual = 2.8371832e-06, No Iterations 5
GAMG:  Solving for p_rgh, Initial residual = 0.0069703748, Final residual = 1.9409958e-06, No Iterations 4
time step continuity errors : sum local = 3.8999277e-05, global = 5.7375265e-06, cumulative = 0.0009629899
ExecutionTime = 2.33 s  ClockTime = 2 s
Inflow      : 4.6456728e-05 [kg/s]
Outflow     : 4.6461513e-05 [kg/s]
EnergyInflow  : 13.726207 [W]
EnergyOutflow : 13.976336 [W]
EnergyBalance : 0.25012926 [W]
rho max/avg/min : 1.2016458 1.0890525 0.87636179
T   max/avg/min : 402.64449 327.84146 293.68891
P   max/avg/min : 101324.91 101316.15 101307.4
Prg max/avg/min : 101325 101324.13 101320.24
U   max/avg/min : 0.42960595 0.16598748 0
Prg max-min : 4.7522433
 
Iteration Number = 61

DILUPBiCG:  Solving for Ux, Initial residual = 0.018777942, Final residual = 1.5518835e-05, No Iterations 2
DILUPBiCG:  Solving for Uy, Initial residual = 0.021648556, Final residual = 1.2409159e-06, No Iterations 3
DILUPBiCG:  Solving for Uz, Initial residual = 0.009995329, Final residual = 4.1931641e-06, No Iterations 2
DILUPBiCG:  Solving for h, Initial residual = 0.002783199, Final residual = 5.1346795e-07, No Iterations 6
GAMG:  Solving for p_rgh, Initial residual = 0.0066576514, Final residual = 1.6025339e-06, No Iterations 4
time step continuity errors : sum local = 3.2128878e-05, global = 1.1113648e-05, cumulative = 0.00097410355
ExecutionTime = 2.37 s  ClockTime = 2 s
Inflow      : 4.6775505e-05 [kg/s]
Outflow     : 4.6784774e-05 [kg/s]
EnergyInflow  : 13.820394 [W]
EnergyOutflow : 14.076313 [W]
EnergyBalance : 0.25591892 [W]
rho max/avg/min : 1.2016458 1.0885672 0.87515779
T   max/avg/min : 403.19844 328.03614 293.68856
P   max/avg/min : 101324.91 101316.15 101307.4
Prg max/avg/min : 101325 101324.12 101320.23
U   max/avg/min : 0.44147346 0.16906352 0
Prg max-min : 4.77191
 
Iteration Number = 62

DILUPBiCG:  Solving for Ux, Initial residual = 0.018317028, Final residual = 1.4634392e-05, No Iterations 2
DILUPBiCG:  Solving for Uy, Initial residual = 0.022012095, Final residual = 1.2766475e-06, No Iterations 3
DILUPBiCG:  Solving for Uz, Initial residual = 0.0098565742, Final residual = 4.2331734e-06, No Iterations 2
DILUPBiCG:  Solving for h, Initial residual = 0.0026632256, Final residual = 4.8759437e-07, No Iterations 6
GAMG:  Solving for p_rgh, Initial residual = 0.0063060086, Final residual = 1.554348e-06, No Iterations 4
time step continuity errors : sum local = 3.1166838e-05, global = 7.7707686e-06, cumulative = 0.00098187432
ExecutionTime = 2.4 s  ClockTime = 2 s
Inflow      : 4.7051932e-05 [kg/s]
Outflow     : 4.7058413e-05 [kg/s]
EnergyInflow  : 13.902067 [W]
EnergyOutflow : 14.161515 [W]
EnergyBalance : 0.25944756 [W]
rho max/avg/min : 1.2016458 1.0881067 0.87398529
T   max/avg/min : 403.73935 328.22225 293.68821
P   max/avg/min : 101324.91 101316.15 101307.4
Prg max/avg/min : 101325 101324.12 101320.21
U   max/avg/min : 0.45316937 0.1720683 0
Prg max-min : 4.7865311
 
Iteration Number = 63

DILUPBiCG:  Solving for Ux, Initial residual = 0.017094627, Final residual = 1.4071058e-05, No Iterations 2
DILUPBiCG:  Solving for Uy, Initial residual = 0.022747998, Final residual = 1.7423161e-06, No Iterations 3
DILUPBiCG:  Solving for Uz, Initial residual = 0.0092205448, Final residual = 3.8986899e-06, No Iterations 2
DILUPBiCG:  Solving for h, Initial residual = 0.0025499889, Final residual = 5.2279932e-07, No Iterations 6
GAMG:  Solving for p_rgh, Initial residual = 0.0060370204, Final residual = 1.9332961e-06, No Iterations 4
time step continuity errors : sum local = 3.870468e-05, global = 2.6724883e-05, cumulative = 0.0010085992
ExecutionTime = 2.45 s  ClockTime = 2 s
Inflow      : 4.7272456e-05 [kg/s]
Outflow     : 4.7294744e-05 [kg/s]
EnergyInflow  : 13.967224 [W]
EnergyOutflow : 14.235575 [W]
EnergyBalance : 0.26835162 [W]
rho max/avg/min : 1.2016458 1.0876702 0.87284389
T   max/avg/min : 404.26732 328.40008 293.68792
P   max/avg/min : 101324.91 101316.15 101307.4
Prg max/avg/min : 101325 101324.11 101320.19
U   max/avg/min : 0.46472905 0.17499145 0
Prg max-min : 4.8044328
 
Iteration Number = 64

DILUPBiCG:  Solving for Ux, Initial residual = 0.016898406, Final residual = 1.3455001e-05, No Iterations 2
DILUPBiCG:  Solving for Uy, Initial residual = 0.022015717, Final residual = 1.7261133e-06, No Iterations 3
DILUPBiCG:  Solving for Uz, Initial residual = 0.0089751795, Final residual = 3.8180111e-06, No Iterations 2
DILUPBiCG:  Solving for h, Initial residual = 0.0024432008, Final residual = 2.5829927e-07, No Iterations 6
GAMG:  Solving for p_rgh, Initial residual = 0.0057448283, Final residual = 1.9399515e-06, No Iterations 4
time step continuity errors : sum local = 3.8853935e-05, global = -2.5166028e-05, cumulative = 0.00098343318
ExecutionTime = 2.48 s  ClockTime = 2 s
Inflow      : 4.7522361e-05 [kg/s]
Outflow     : 4.7501373e-05 [kg/s]
EnergyInflow  : 14.041061 [W]
EnergyOutflow : 14.300752 [W]
EnergyBalance : 0.25969093 [W]
rho max/avg/min : 1.2016458 1.0872564 0.8717328
T   max/avg/min : 404.78259 328.56992 293.68764
P   max/avg/min : 101324.91 101316.15 101307.4
Prg max/avg/min : 101325 101324.11 101320.18
U   max/avg/min : 0.47614269 0.17785964 0
Prg max-min : 4.8197908
 
Iteration Number = 65

DILUPBiCG:  Solving for Ux, Initial residual = 0.01618212, Final residual = 1.360918e-05, No Iterations 2
DILUPBiCG:  Solving for Uy, Initial residual = 0.02190978, Final residual = 1.3237964e-06, No Iterations 3
DILUPBiCG:  Solving for Uz, Initial residual = 0.0086311294, Final residual = 3.6897138e-06, No Iterations 2
DILUPBiCG:  Solving for h, Initial residual = 0.0023415629, Final residual = 3.7375095e-07, No Iterations 6
GAMG:  Solving for p_rgh, Initial residual = 0.0055039597, Final residual = 1.7565713e-06, No Iterations 4
time step continuity errors : sum local = 3.5149633e-05, global = 5.0960347e-06, cumulative = 0.00098852921
ExecutionTime = 2.52 s  ClockTime = 3 s
Inflow      : 4.7667968e-05 [kg/s]
Outflow     : 4.7672218e-05 [kg/s]
EnergyInflow  : 14.084083 [W]
EnergyOutflow : 14.355237 [W]
EnergyBalance : 0.27115416 [W]
rho max/avg/min : 1.2016458 1.0868646 0.8706517
T   max/avg/min : 405.28521 328.73203 293.6874
P   max/avg/min : 101324.91 101316.15 101307.4
Prg max/avg/min : 101325 101324.11 101320.16
U   max/avg/min : 0.48736826 0.18064924 0
Prg max-min : 4.8351178
 
Iteration Number = 66

DILUPBiCG:  Solving for Ux, Initial residual = 0.015251148, Final residual = 1.2262718e-05, No Iterations 2
DILUPBiCG:  Solving for Uy, Initial residual = 0.021196786, Final residual = 2.2246831e-06, No Iterations 3
DILUPBiCG:  Solving for Uz, Initial residual = 0.0082669383, Final residual = 3.5371112e-06, No Iterations 2
DILUPBiCG:  Solving for h, Initial residual = 0.0022454592, Final residual = 3.1467752e-07, No Iterations 6
GAMG:  Solving for p_rgh, Initial residual = 0.0052583583, Final residual = 1.0304358e-06, No Iterations 4
time step continuity errors : sum local = 2.0608365e-05, global = 7.1070795e-06, cumulative = 0.00099563629
ExecutionTime = 2.56 s  ClockTime = 3 s
Inflow      : 4.7816367e-05 [kg/s]
Outflow     : 4.7822294e-05 [kg/s]
EnergyInflow  : 14.127929 [W]
EnergyOutflow : 14.403472 [W]
EnergyBalance : 0.27554304 [W]
rho max/avg/min : 1.2016458 1.0864938 0.86959952
T   max/avg/min : 405.77559 328.88669 293.68718
P   max/avg/min : 101324.91 101316.15 101307.4
Prg max/avg/min : 101325 101324.1 101320.15
U   max/avg/min : 0.49840656 0.18337357 0
Prg max-min : 4.8505128
 
Iteration Number = 67

DILUPBiCG:  Solving for Ux, Initial residual = 0.015385869, Final residual = 1.3422519e-05, No Iterations 2
DILUPBiCG:  Solving for Uy, Initial residual = 0.020493423, Final residual = 1.0767311e-05, No Iterations 3
DILUPBiCG:  Solving for Uz, Initial residual = 0.0080358789, Final residual = 3.4866199e-06, No Iterations 2
DILUPBiCG:  Solving for h, Initial residual = 0.0021541519, Final residual = 2.9948937e-07, No Iterations 6
GAMG:  Solving for p_rgh, Initial residual = 0.0050400533, Final residual = 1.7658964e-06, No Iterations 4
time step continuity errors : sum local = 3.5348246e-05, global = 4.5077599e-06, cumulative = 0.001000144
ExecutionTime = 2.6 s  ClockTime = 3 s
Inflow      : 4.7936358e-05 [kg/s]
Outflow     : 4.7940118e-05 [kg/s]
EnergyInflow  : 14.163382 [W]
EnergyOutflow : 14.442076 [W]
EnergyBalance : 0.27869387 [W]
rho max/avg/min : 1.2016458 1.086143 0.86857605
T   max/avg/min : 406.25373 329.03415 293.68698
P   max/avg/min : 101324.91 101316.15 101307.4
Prg max/avg/min : 101325 101324.1 101320.13
U   max/avg/min : 0.50924539 0.18604137 0
Prg max-min : 4.8653129
 
Iteration Number = 68

DILUPBiCG:  Solving for Ux, Initial residual = 0.014424966, Final residual = 1.1066768e-05, No Iterations 2
DILUPBiCG:  Solving for Uy, Initial residual = 0.019730398, Final residual = 8.6649014e-07, No Iterations 3
DILUPBiCG:  Solving for Uz, Initial residual = 0.0077373775, Final residual = 3.4450729e-06, No Iterations 2
DILUPBiCG:  Solving for h, Initial residual = 0.002066999, Final residual = 3.0641262e-07, No Iterations 6
GAMG:  Solving for p_rgh, Initial residual = 0.004821813, Final residual = 6.8972225e-07, No Iterations 4
time step continuity errors : sum local = 1.3803762e-05, global = 6.5124155e-07, cumulative = 0.0010007953
ExecutionTime = 2.64 s  ClockTime = 3 s
Inflow      : 4.8045808e-05 [kg/s]
Outflow     : 4.8046351e-05 [kg/s]
EnergyInflow  : 14.19572 [W]
EnergyOutflow : 14.477144 [W]
EnergyBalance : 0.28142427 [W]
rho max/avg/min : 1.2016458 1.0858114 0.86758077
T   max/avg/min : 406.71979 329.17466 293.68679
P   max/avg/min : 101324.91 101316.15 101307.4
Prg max/avg/min : 101325 101324.1 101320.12
U   max/avg/min : 0.51989108 0.18864646 0
Prg max-min : 4.8795226
 
Iteration Number = 69

DILUPBiCG:  Solving for Ux, Initial residual = 0.014052752, Final residual = 1.2583076e-05, No Iterations 2
DILUPBiCG:  Solving for Uy, Initial residual = 0.019969225, Final residual = 4.1704862e-06, No Iterations 3
DILUPBiCG:  Solving for Uz, Initial residual = 0.0074901038, Final residual = 3.4840907e-06, No Iterations 2
DILUPBiCG:  Solving for h, Initial residual = 0.0019839006, Final residual = 1.78885e-07, No Iterations 6
GAMG:  Solving for p_rgh, Initial residual = 0.0046294601, Final residual = 1.6432131e-06, No Iterations 4
time step continuity errors : sum local = 3.290387e-05, global = 5.245937e-06, cumulative = 0.0010060412
[...]
GAMG:  Solving for p_rgh, Initial residual = 1.694018e-06, Final residual = 1.8367367e-07, No Iterations 1
time step continuity errors : sum local = 3.4165646e-06, global = -1.679004e-07, cumulative = 0.00044360447
ExecutionTime = 20.35 s  ClockTime = 20 s
Inflow      : 4.6262712e-05 [kg/s]
Outflow     : 4.6262572e-05 [kg/s]
EnergyInflow  : 13.668883 [W]
EnergyOutflow : 14.045394 [W]
EnergyBalance : 0.37651158 [W]
rho max/avg/min : 1.2016458 1.0901733 0.85087057
T   max/avg/min : 414.7073 328.35334 293.68615
P   max/avg/min : 101324.91 101316.16 101307.4
Prg max/avg/min : 101325 101324.12 101319.87
U   max/avg/min : 1.1986255 0.33851728 0
Prg max-min : 5.132132
 
Iteration Number = 522

DILUPBiCG:  Solving for Ux, Initial residual = 1.2541417e-05, Final residual = 2.8241621e-07, No Iterations 1
DILUPBiCG:  Solving for Uy, Initial residual = 0.018466715, Final residual = 1.5161087e-06, No Iterations 3
DILUPBiCG:  Solving for Uz, Initial residual = 1.0196414e-05, Final residual = 1.425755e-08, No Iterations 2
DILUPBiCG:  Solving for h, Initial residual = 1.2283557e-06, Final residual = 3.01272e-07, No Iterations 1
GAMG:  Solving for p_rgh, Initial residual = 1.6741183e-06, Final residual = 1.8281462e-07, No Iterations 1
time step continuity errors : sum local = 3.3984044e-06, global = -1.6454451e-07, cumulative = 0.00044343992
ExecutionTime = 20.38 s  ClockTime = 20 s
Inflow      : 4.6266089e-05 [kg/s]
Outflow     : 4.6265952e-05 [kg/s]
EnergyInflow  : 13.669881 [W]
EnergyOutflow : 14.046393 [W]
EnergyBalance : 0.37651193 [W]
rho max/avg/min : 1.2016458 1.0901736 0.85087157
T   max/avg/min : 414.70681 328.3532 293.68615
P   max/avg/min : 101324.91 101316.16 101307.4
Prg max/avg/min : 101325 101324.12 101319.87
U   max/avg/min : 1.1986381 0.3385226 0
Prg max-min : 5.1321178
 
Iteration Number = 523

DILUPBiCG:  Solving for Ux, Initial residual = 1.239657e-05, Final residual = 2.7777862e-07, No Iterations 1
DILUPBiCG:  Solving for Uy, Initial residual = 0.017436964, Final residual = 6.6682553e-08, No Iterations 4
DILUPBiCG:  Solving for Uz, Initial residual = 1.0126152e-05, Final residual = 1.4474292e-08, No Iterations 2
DILUPBiCG:  Solving for h, Initial residual = 1.2115413e-06, Final residual = 2.9720622e-07, No Iterations 1
GAMG:  Solving for p_rgh, Initial residual = 1.6536201e-06, Final residual = 1.8161408e-07, No Iterations 1
time step continuity errors : sum local = 3.375018e-06, global = -1.6652461e-07, cumulative = 0.0004432734
ExecutionTime = 20.42 s  ClockTime = 20 s
Inflow      : 4.6269463e-05 [kg/s]
Outflow     : 4.6269324e-05 [kg/s]
EnergyInflow  : 13.670877 [W]
EnergyOutflow : 14.047388 [W]
EnergyBalance : 0.37651098 [W]
rho max/avg/min : 1.2016458 1.090174 0.85087256
T   max/avg/min : 414.70633 328.35307 293.68615
P   max/avg/min : 101324.91 101316.16 101307.4
Prg max/avg/min : 101325 101324.12 101319.87
U   max/avg/min : 1.1986506 0.33852787 0
Prg max-min : 5.1321038
 
Iteration Number = 524

DILUPBiCG:  Solving for Ux, Initial residual = 1.2336881e-05, Final residual = 2.7696214e-07, No Iterations 1
DILUPBiCG:  Solving for Uy, Initial residual = 0.017275196, Final residual = 2.1897647e-06, No Iterations 3
DILUPBiCG:  Solving for Uz, Initial residual = 1.0057006e-05, Final residual = 1.4712324e-08, No Iterations 2
DILUPBiCG:  Solving for h, Initial residual = 1.1950245e-06, Final residual = 2.9320254e-07, No Iterations 1
GAMG:  Solving for p_rgh, Initial residual = 1.633854e-06, Final residual = 1.8008317e-07, No Iterations 1
time step continuity errors : sum local = 3.3469408e-06, global = -1.7199826e-07, cumulative = 0.0004431014
ExecutionTime = 20.45 s  ClockTime = 21 s
Inflow      : 4.6272831e-05 [kg/s]
Outflow     : 4.6272688e-05 [kg/s]
EnergyInflow  : 13.671873 [W]
EnergyOutflow : 14.048382 [W]
EnergyBalance : 0.37650917 [W]
rho max/avg/min : 1.2016458 1.0901744 0.85087353
T   max/avg/min : 414.70586 328.35294 293.68615
P   max/avg/min : 101324.91 101316.16 101307.4
Prg max/avg/min : 101325 101324.12 101319.87
U   max/avg/min : 1.1986628 0.33853311 0
Prg max-min : 5.13209
 
Iteration Number = 525

DILUPBiCG:  Solving for Ux, Initial residual = 1.2252825e-05, Final residual = 2.7674358e-07, No Iterations 1
DILUPBiCG:  Solving for Uy, Initial residual = 0.017237309, Final residual = 1.5011784e-06, No Iterations 3
DILUPBiCG:  Solving for Uz, Initial residual = 9.9876207e-06, Final residual = 1.4956927e-08, No Iterations 2
DILUPBiCG:  Solving for h, Initial residual = 1.1787281e-06, Final residual = 2.8916411e-07, No Iterations 1
GAMG:  Solving for p_rgh, Initial residual = 1.6136111e-06, Final residual = 1.7865522e-07, No Iterations 1
time step continuity errors : sum local = 3.3191221e-06, global = -1.7943056e-07, cumulative = 0.00044292197
ExecutionTime = 20.48 s  ClockTime = 21 s
Inflow      : 4.6276194e-05 [kg/s]
Outflow     : 4.6276044e-05 [kg/s]
EnergyInflow  : 13.672866 [W]
EnergyOutflow : 14.049373 [W]
EnergyBalance : 0.3765069 [W]
rho max/avg/min : 1.2016458 1.0901747 0.85087448
T   max/avg/min : 414.70539 328.35281 293.68615
P   max/avg/min : 101324.91 101316.16 101307.4
Prg max/avg/min : 101325 101324.12 101319.87
U   max/avg/min : 1.1986749 0.3385383 0
Prg max-min : 5.1320764
 
Iteration Number = 526

DILUPBiCG:  Solving for Ux, Initial residual = 1.2177712e-05, Final residual = 2.7673635e-07, No Iterations 1
DILUPBiCG:  Solving for Uy, Initial residual = 0.017550164, Final residual = 9.4626867e-07, No Iterations 3
DILUPBiCG:  Solving for Uz, Initial residual = 9.918461e-06, Final residual = 1.5203067e-08, No Iterations 2
DILUPBiCG:  Solving for h, Initial residual = 1.1627596e-06, Final residual = 2.8515708e-07, No Iterations 1
GAMG:  Solving for p_rgh, Initial residual = 1.5939951e-06, Final residual = 1.7690048e-07, No Iterations 1
time step continuity errors : sum local = 3.2897252e-06, global = -1.8712748e-07, cumulative = 0.00044273484
ExecutionTime = 20.51 s  ClockTime = 21 s
Inflow      : 4.6279549e-05 [kg/s]
Outflow     : 4.6279393e-05 [kg/s]
EnergyInflow  : 13.673857 [W]
EnergyOutflow : 14.050362 [W]
EnergyBalance : 0.37650457 [W]
rho max/avg/min : 1.2016458 1.0901751 0.85087542
T   max/avg/min : 414.70494 328.35269 293.68615
P   max/avg/min : 101324.91 101316.16 101307.4
Prg max/avg/min : 101325 101324.12 101319.87
U   max/avg/min : 1.1986869 0.33854345 0
Prg max-min : 5.132063
 
Iteration Number = 527

DILUPBiCG:  Solving for Ux, Initial residual = 1.2092384e-05, Final residual = 2.7436517e-07, No Iterations 1
DILUPBiCG:  Solving for Uy, Initial residual = 0.017422948, Final residual = 1.3667271e-06, No Iterations 3
DILUPBiCG:  Solving for Uz, Initial residual = 9.8494308e-06, Final residual = 1.5449144e-08, No Iterations 2
DILUPBiCG:  Solving for h, Initial residual = 1.1471111e-06, Final residual = 2.8153328e-07, No Iterations 1
GAMG:  Solving for p_rgh, Initial residual = 1.5746006e-06, Final residual = 1.7560636e-07, No Iterations 1
time step continuity errors : sum local = 3.2644789e-06, global = -1.9541617e-07, cumulative = 0.00044253943
ExecutionTime = 20.54 s  ClockTime = 21 s
Inflow      : 4.6282897e-05 [kg/s]
Outflow     : 4.6282734e-05 [kg/s]
EnergyInflow  : 13.674847 [W]
EnergyOutflow : 14.051349 [W]
EnergyBalance : 0.37650211 [W]
rho max/avg/min : 1.2016458 1.0901754 0.85087635
T   max/avg/min : 414.70448 328.35256 293.68615
P   max/avg/min : 101324.91 101316.16 101307.4
Prg max/avg/min : 101325 101324.12 101319.87
U   max/avg/min : 1.1986986 0.33854855 0
Prg max-min : 5.1320498
 
Iteration Number = 528

DILUPBiCG:  Solving for Ux, Initial residual = 1.2009119e-05, Final residual = 2.702276e-07, No Iterations 1
DILUPBiCG:  Solving for Uy, Initial residual = 0.017230568, Final residual = 2.1291368e-06, No Iterations 3
DILUPBiCG:  Solving for Uz, Initial residual = 9.7802615e-06, Final residual = 1.5702342e-08, No Iterations 2
DILUPBiCG:  Solving for h, Initial residual = 1.1318082e-06, Final residual = 2.7801875e-07, No Iterations 1
GAMG:  Solving for p_rgh, Initial residual = 1.5565064e-06, Final residual = 1.7448443e-07, No Iterations 1
time step continuity errors : sum local = 3.245336e-06, global = -2.0198003e-07, cumulative = 0.00044233745
ExecutionTime = 20.59 s  ClockTime = 21 s
Inflow      : 4.6286236e-05 [kg/s]
Outflow     : 4.6286068e-05 [kg/s]
EnergyInflow  : 13.675833 [W]
EnergyOutflow : 14.052333 [W]
EnergyBalance : 0.37650009 [W]
rho max/avg/min : 1.2016458 1.0901758 0.85087727
T   max/avg/min : 414.70404 328.35244 293.68615
P   max/avg/min : 101324.91 101316.16 101307.4
Prg max/avg/min : 101325 101324.12 101319.87
U   max/avg/min : 1.1987103 0.33855362 0
Prg max-min : 5.1320368
 
Iteration Number = 529

DILUPBiCG:  Solving for Ux, Initial residual = 1.1934216e-05, Final residual = 2.6731597e-07, No Iterations 1
DILUPBiCG:  Solving for Uy, Initial residual = 0.017411842, Final residual = 9.2352853e-07, No Iterations 3
DILUPBiCG:  Solving for Uz, Initial residual = 9.7110324e-06, Final residual = 1.5953403e-08, No Iterations 2
DILUPBiCG:  Solving for h, Initial residual = 1.1168121e-06, Final residual = 2.7443187e-07, No Iterations 1
GAMG:  Solving for p_rgh, Initial residual = 1.5376652e-06, Final residual = 1.7362842e-07, No Iterations 1
time step continuity errors : sum local = 3.2278622e-06, global = -2.0374744e-07, cumulative = 0.0004421337
ExecutionTime = 20.62 s  ClockTime = 21 s
Inflow      : 4.6289564e-05 [kg/s]
Outflow     : 4.6289394e-05 [kg/s]
EnergyInflow  : 13.676816 [W]
EnergyOutflow : 14.053316 [W]
EnergyBalance : 0.37649926 [W]
rho max/avg/min : 1.2016458 1.0901761 0.85087817
T   max/avg/min : 414.7036 328.35231 293.68615
P   max/avg/min : 101324.91 101316.16 101307.4
Prg max/avg/min : 101325 101324.12 101319.87
U   max/avg/min : 1.1987217 0.33855864 0
Prg max-min : 5.132024
 
Iteration Number = 530

DILUPBiCG:  Solving for Ux, Initial residual = 1.185281e-05, Final residual = 2.6674077e-07, No Iterations 1
DILUPBiCG:  Solving for Uy, Initial residual = 0.01752988, Final residual = 3.6104481e-06, No Iterations 3
DILUPBiCG:  Solving for Uz, Initial residual = 9.6423589e-06, Final residual = 1.6188315e-08, No Iterations 2
DILUPBiCG:  Solving for h, Initial residual = 1.1020279e-06, Final residual = 2.7072291e-07, No Iterations 1
GAMG:  Solving for p_rgh, Initial residual = 1.5196344e-06, Final residual = 1.7273424e-07, No Iterations 1
time step continuity errors : sum local = 3.2081763e-06, global = -2.0257906e-07, cumulative = 0.00044193112
ExecutionTime = 20.65 s  ClockTime = 21 s
Inflow      : 4.6292882e-05 [kg/s]
Outflow     : 4.6292713e-05 [kg/s]
EnergyInflow  : 13.677797 [W]
EnergyOutflow : 14.054296 [W]
EnergyBalance : 0.37649915 [W]
rho max/avg/min : 1.2016458 1.0901765 0.85087905
T   max/avg/min : 414.70317 328.35219 293.68615
P   max/avg/min : 101324.91 101316.16 101307.4
Prg max/avg/min : 101325 101324.12 101319.87
U   max/avg/min : 1.198733 0.33856363 0
Prg max-min : 5.1320113
 
Iteration Number = 531

DILUPBiCG:  Solving for Ux, Initial residual = 1.1743254e-05, Final residual = 2.6595586e-07, No Iterations 1
DILUPBiCG:  Solving for Uy, Initial residual = 0.016999161, Final residual = 8.72011e-07, No Iterations 3
DILUPBiCG:  Solving for Uz, Initial residual = 9.5742106e-06, Final residual = 1.6440814e-08, No Iterations 2
DILUPBiCG:  Solving for h, Initial residual = 1.0874027e-06, Final residual = 2.671414e-07, No Iterations 1
GAMG:  Solving for p_rgh, Initial residual = 1.5018215e-06, Final residual = 1.7138953e-07, No Iterations 1
time step continuity errors : sum local = 3.1836327e-06, global = -1.9871801e-07, cumulative = 0.0004417324
ExecutionTime = 20.69 s  ClockTime = 21 s
Inflow      : 4.6296189e-05 [kg/s]
Outflow     : 4.6296023e-05 [kg/s]
EnergyInflow  : 13.678774 [W]
EnergyOutflow : 14.055273 [W]
EnergyBalance : 0.37649972 [W]
rho max/avg/min : 1.2016458 1.0901768 0.85087993
T   max/avg/min : 414.70274 328.35207 293.68615
P   max/avg/min : 101324.91 101316.16 101307.4
Prg max/avg/min : 101325 101324.12 101319.87
U   max/avg/min : 1.1987442 0.33856857 0
Prg max-min : 5.1319988
 
Iteration Number = 532

DILUPBiCG:  Solving for Ux, Initial residual = 1.1667622e-05, Final residual = 2.6555005e-07, No Iterations 1
DILUPBiCG:  Solving for Uy, Initial residual = 0.017358208, Final residual = 1.3997451e-06, No Iterations 3
DILUPBiCG:  Solving for Uz, Initial residual = 9.5072963e-06, Final residual = 1.6717837e-08, No Iterations 2
DILUPBiCG:  Solving for h, Initial residual = 1.073053e-06, Final residual = 2.6368248e-07, No Iterations 1
GAMG:  Solving for p_rgh, Initial residual = 1.4844902e-06, Final residual = 1.7043008e-07, No Iterations 1
time step continuity errors : sum local = 3.166028e-06, global = -1.9233201e-07, cumulative = 0.00044154007
ExecutionTime = 20.72 s  ClockTime = 21 s
Inflow      : 4.6299486e-05 [kg/s]
Outflow     : 4.6299326e-05 [kg/s]
EnergyInflow  : 13.679748 [W]
EnergyOutflow : 14.056249 [W]
EnergyBalance : 0.37650093 [W]
rho max/avg/min : 1.2016458 1.0901771 0.85088079
T   max/avg/min : 414.70232 328.35196 293.68615
P   max/avg/min : 101324.91 101316.16 101307.4
Prg max/avg/min : 101325 101324.12 101319.87
U   max/avg/min : 1.1987552 0.33857347 0
Prg max-min : 5.1319866
 
Iteration Number = 533

DILUPBiCG:  Solving for Ux, Initial residual = 1.163144e-05, Final residual = 2.6396272e-07, No Iterations 1
DILUPBiCG:  Solving for Uy, Initial residual = 0.0176609, Final residual = 1.1395781e-06, No Iterations 3
DILUPBiCG:  Solving for Uz, Initial residual = 9.4410245e-06, Final residual = 1.7026722e-08, No Iterations 2
DILUPBiCG:  Solving for h, Initial residual = 1.0589791e-06, Final residual = 2.6044367e-07, No Iterations 1
GAMG:  Solving for p_rgh, Initial residual = 1.4682118e-06, Final residual = 1.6966578e-07, No Iterations 1
time step continuity errors : sum local = 3.1533649e-06, global = -1.8427359e-07, cumulative = 0.0004413558
ExecutionTime = 20.75 s  ClockTime = 21 s
Inflow      : 4.6302775e-05 [kg/s]
Outflow     : 4.6302621e-05 [kg/s]
EnergyInflow  : 13.68072 [W]
EnergyOutflow : 14.057222 [W]
EnergyBalance : 0.37650255 [W]
rho max/avg/min : 1.2016458 1.0901774 0.85088164
T   max/avg/min : 414.70191 328.35184 293.68615
P   max/avg/min : 101324.91 101316.16 101307.4
Prg max/avg/min : 101325 101324.12 101319.87
U   max/avg/min : 1.198766 0.33857833 0
Prg max-min : 5.1319745
 
Iteration Number = 534

DILUPBiCG:  Solving for Ux, Initial residual = 1.1522658e-05, Final residual = 2.5996356e-07, No Iterations 1
DILUPBiCG:  Solving for Uy, Initial residual = 0.016093761, Final residual = 3.2133937e-06, No Iterations 3
DILUPBiCG:  Solving for Uz, Initial residual = 9.3761636e-06, Final residual = 1.733705e-08, No Iterations 2
DILUPBiCG:  Solving for h, Initial residual = 1.0452423e-06, Final residual = 2.5721276e-07, No Iterations 1
GAMG:  Solving for p_rgh, Initial residual = 1.4520314e-06, Final residual = 1.6894316e-07, No Iterations 1
time step continuity errors : sum local = 3.1428805e-06, global = -1.7476007e-07, cumulative = 0.00044118104
ExecutionTime = 20.78 s  ClockTime = 21 s
Inflow      : 4.6306055e-05 [kg/s]
Outflow     : 4.6305909e-05 [kg/s]
EnergyInflow  : 13.681689 [W]
EnergyOutflow : 14.058193 [W]
EnergyBalance : 0.37650455 [W]
rho max/avg/min : 1.2016458 1.0901778 0.85088247
T   max/avg/min : 414.7015 328.35173 293.68615
P   max/avg/min : 101324.91 101316.16 101307.4
Prg max/avg/min : 101325 101324.12 101319.87
U   max/avg/min : 1.1987767 0.33858316 0
Prg max-min : 5.1319625
 
Iteration Number = 535

DILUPBiCG:  Solving for Ux, Initial residual = 1.1460663e-05, Final residual = 2.5869837e-07, No Iterations 1
DILUPBiCG:  Solving for Uy, Initial residual = 0.016962943, Final residual = 1.0892038e-06, No Iterations 3
DILUPBiCG:  Solving for Uz, Initial residual = 9.3123293e-06, Final residual = 1.7679691e-08, No Iterations 2
DILUPBiCG:  Solving for h, Initial residual = 1.0316812e-06, Final residual = 2.5395162e-07, No Iterations 1
GAMG:  Solving for p_rgh, Initial residual = 1.4358448e-06, Final residual = 1.6838733e-07, No Iterations 1
time step continuity errors : sum local = 3.1309644e-06, global = -1.6379639e-07, cumulative = 0.00044101724
ExecutionTime = 20.81 s  ClockTime = 21 s
Inflow      : 4.6309326e-05 [kg/s]
Outflow     : 4.630919e-05 [kg/s]
EnergyInflow  : 13.682655 [W]
EnergyOutflow : 14.059162 [W]
EnergyBalance : 0.37650691 [W]
rho max/avg/min : 1.2016458 1.0901781 0.8508833
T   max/avg/min : 414.7011 328.35161 293.68615
P   max/avg/min : 101324.91 101316.16 101307.4
Prg max/avg/min : 101325 101324.12 101319.87
U   max/avg/min : 1.1987873 0.33858795 0
Prg max-min : 5.1319508
 
Iteration Number = 536

DILUPBiCG:  Solving for Ux, Initial residual = 1.1359671e-05, Final residual = 2.5708468e-07, No Iterations 1
DILUPBiCG:  Solving for Uy, Initial residual = 0.01782296, Final residual = 1.3135739e-06, No Iterations 3
DILUPBiCG:  Solving for Uz, Initial residual = 9.2499292e-06, Final residual = 1.8063144e-08, No Iterations 2
DILUPBiCG:  Solving for h, Initial residual = 1.0183537e-06, Final residual = 2.5068811e-07, No Iterations 1
GAMG:  Solving for p_rgh, Initial residual = 1.4209221e-06, Final residual = 1.6788374e-07, No Iterations 1
time step continuity errors : sum local = 3.1168843e-06, global = -1.5317624e-07, cumulative = 0.00044086406
ExecutionTime = 20.85 s  ClockTime = 21 s
Inflow      : 4.6312591e-05 [kg/s]
Outflow     : 4.6312463e-05 [kg/s]
EnergyInflow  : 13.68362 [W]
EnergyOutflow : 14.060129 [W]
EnergyBalance : 0.37650919 [W]
rho max/avg/min : 1.2016458 1.0901784 0.85088411
T   max/avg/min : 414.7007 328.3515 293.68615
P   max/avg/min : 101324.91 101316.16 101307.4
Prg max/avg/min : 101325 101324.12 101319.87
U   max/avg/min : 1.1987977 0.33859269 0
Prg max-min : 5.1319392
 
Iteration Number = 537

DILUPBiCG:  Solving for Ux, Initial residual = 1.129368e-05, Final residual = 2.5731052e-07, No Iterations 1
DILUPBiCG:  Solving for Uy, Initial residual = 0.017238447, Final residual = 4.3044547e-08, No Iterations 4
DILUPBiCG:  Solving for Uz, Initial residual = 9.1895225e-06, Final residual = 1.8473373e-08, No Iterations 2
DILUPBiCG:  Solving for h, Initial residual = 1.0052146e-06, Final residual = 2.4747741e-07, No Iterations 1
GAMG:  Solving for p_rgh, Initial residual = 1.4051798e-06, Final residual = 1.6696327e-07, No Iterations 1
time step continuity errors : sum local = 3.1034787e-06, global = -1.4326839e-07, cumulative = 0.00044072079
ExecutionTime = 20.88 s  ClockTime = 21 s
Inflow      : 4.6315848e-05 [kg/s]
Outflow     : 4.6315729e-05 [kg/s]
EnergyInflow  : 13.684582 [W]
EnergyOutflow : 14.061094 [W]
EnergyBalance : 0.37651131 [W]
rho max/avg/min : 1.2016458 1.0901787 0.85088491
T   max/avg/min : 414.70031 328.35139 293.68615
P   max/avg/min : 101324.91 101316.16 101307.4
Prg max/avg/min : 101325 101324.12 101319.87
U   max/avg/min : 1.198808 0.33859741 0
Prg max-min : 5.1319279
 
Iteration Number = 538

DILUPBiCG:  Solving for Ux, Initial residual = 1.1241553e-05, Final residual = 2.5514251e-07, No Iterations 1
DILUPBiCG:  Solving for Uy, Initial residual = 0.01685379, Final residual = 4.0898208e-06, No Iterations 3
DILUPBiCG:  Solving for Uz, Initial residual = 9.1301516e-06, Final residual = 1.8911886e-08, No Iterations 2
DILUPBiCG:  Solving for h, Initial residual = 9.9230383e-07, Final residual = 9.9230383e-07, No Iterations 0
GAMG:  Solving for p_rgh, Initial residual = 3.545006e-07, Final residual = 3.545006e-07, No Iterations 0
time step continuity errors : sum local = 6.5846075e-06, global = 2.9205615e-06, cumulative = 0.00044364136
ExecutionTime = 20.92 s  ClockTime = 21 s
Inflow      : 4.6316552e-05 [kg/s]
Outflow     : 4.6318987e-05 [kg/s]
EnergyInflow  : 13.68479 [W]
EnergyOutflow : 14.062056 [W]
EnergyBalance : 0.37726596 [W]
rho max/avg/min : 1.2016458 1.0901787 0.85088491
T   max/avg/min : 414.70031 328.35139 293.68615
P   max/avg/min : 101324.91 101316.16 101307.4
Prg max/avg/min : 101325 101324.12 101319.87
U   max/avg/min : 1.1988182 0.33860208 0
Prg max-min : 5.1319279
 

SIMPLE solution converged in 538 iterations

End

