/*---------------------------------------------------------------------------*\
| =========                 |                                                 |
| \\      /  F ield         | OpenFOAM: The Open Source CFD Toolbox           |
|  \\    /   O peration     | Version:  4.0                                   |
|   \\  /    A nd           | Web:      www.OpenFOAM.org                      |
|    \\/     M anipulation  |                                                 |
\*---------------------------------------------------------------------------*/
Build  : 4.0-665f1db4c1f1
Exec   : pupoBuoyantSimpleFoam
Date   : Aug 22 2016
Time   : 00:28:11
Host   : "SC500"
PID    : 10074
Case   : /home/pedro/Documents/ThesisProject/OpenFoam/validation1rod/NoRad
nProcs : 1
sigFpe : Enabling floating point exception trapping (FOAM_SIGFPE).
fileModificationChecking : Monitoring run-time modified files using timeStampMaster
allowSystemOperations : Allowing user-supplied system call operations

// * * * * * * * * * * * * * * * * * * * * * * * * * * * * * * * * * * * * * //
Create time

Create mesh for time = 0


SIMPLE: convergence criteria
    field p_rgh	 tolerance 1e-06
    field Uz	 tolerance 1e-06
    field h	 tolerance 1e-06

Reading thermophysical properties

Selecting thermodynamics package 
{
    type            heRhoThermo;
    mixture         pureMixture;
    transport       sutherland;
    thermo          hConst;
    equationOfState perfectGas;
    specie          specie;
    energy          sensibleEnthalpy;
}


Reading g

Reading hRef
Calculating field g.h

Selecting turbulence model type laminar
No MRF models present

Selecting radiationModel none
 
rho max/avg/min : 1.2016452 1.2015414 1.2014377
T   max/avg/min : 293.7 293.7 293.7
P   max/avg/min : 101324.91 101316.16 101307.41
Prg max/avg/min : 101325 101325 101325
U   max/avg/min : 0 0 0
 
No finite volume options present


Starting Iteration loop

Iteration Number = 1

DILUPBiCG:  Solving for Ux, Initial residual = 0.009764874, Final residual = 1.3546237e-06, No Iterations 2
DILUPBiCG:  Solving for Uy, Initial residual = 4.8698736e-07, Final residual = 7.7482914e-11, No Iterations 2
DILUPBiCG:  Solving for Uz, Initial residual = 1, Final residual = 0.00034325924, No Iterations 2
DILUPBiCG:  Solving for h, Initial residual = 1, Final residual = 0.00045976175, No Iterations 1
GAMG:  Solving for p_rgh, Initial residual = 0.72410927, Final residual = 0.00027150765, No Iterations 3
time step continuity errors : sum local = 6.5160999e-05, global = -2.8963092e-05, cumulative = -2.8963092e-05
ExecutionTime = 0.1 s  ClockTime = 0 s
Inflow      : -2.3932533e-07 [kg/s]
Outflow     : -2.6348053e-07 [kg/s]
EnergyInflow  : -0.070711589 [W]
EnergyOutflow : -0.077848538 [W]
rho max/avg/min : 1.2016452 1.1980051 1.1399242
T   max/avg/min : 309.54886 294.59253 293.7
P   max/avg/min : 101324.91 101316.16 101307.41
Prg max/avg/min : 101325 101324.97 101324.1
U   max/avg/min : 5.8461576e-05 -8.4729649e-05 -0.00086325
Prg max-min : 0.90124613
 
Iteration Number = 2

DILUPBiCG:  Solving for Ux, Initial residual = 0.36656203, Final residual = 0.0001140089, No Iterations 2
DILUPBiCG:  Solving for Uy, Initial residual = 9.3847995e-05, Final residual = 2.3827601e-08, No Iterations 2
DILUPBiCG:  Solving for Uz, Initial residual = 0.39706803, Final residual = 4.658846e-05, No Iterations 2
DILUPBiCG:  Solving for h, Initial residual = 0.25077297, Final residual = 6.5553365e-05, No Iterations 1
GAMG:  Solving for p_rgh, Initial residual = 0.024437575, Final residual = 1.3199114e-05, No Iterations 4
time step continuity errors : sum local = 4.6309559e-05, global = 5.5457228e-06, cumulative = -2.3417369e-05
ExecutionTime = 0.13 s  ClockTime = 0 s
Inflow      : -3.7488861e-07 [kg/s]
Outflow     : -3.7026348e-07 [kg/s]
EnergyInflow  : -0.11076541 [W]
EnergyOutflow : -0.10939886 [W]
rho max/avg/min : 1.2016452 1.1947811 1.1102971
T   max/avg/min : 317.8094 295.43286 293.70001
P   max/avg/min : 101324.91 101316.16 101307.41
Prg max/avg/min : 101325 101324.95 101323.66
U   max/avg/min : 0.00018394411 -0.00011645549 -0.00086936039
Prg max-min : 1.3359872
 
Iteration Number = 3

DILUPBiCG:  Solving for Ux, Initial residual = 0.45455695, Final residual = 0.00017507571, No Iterations 2
DILUPBiCG:  Solving for Uy, Initial residual = 0.00011213548, Final residual = 3.4413308e-08, No Iterations 2
DILUPBiCG:  Solving for Uz, Initial residual = 0.20546365, Final residual = 1.7757187e-05, No Iterations 2
DILUPBiCG:  Solving for h, Initial residual = 0.15515588, Final residual = 4.9694929e-05, No Iterations 1
GAMG:  Solving for p_rgh, Initial residual = 0.011776114, Final residual = 1.0094425e-05, No Iterations 2
time step continuity errors : sum local = 6.2675863e-05, global = -1.6963027e-05, cumulative = -4.0380395e-05
ExecutionTime = 0.16 s  ClockTime = 1 s
Inflow      : -2.8095964e-07 [kg/s]
Outflow     : -2.9510679e-07 [kg/s]
EnergyInflow  : -0.083012954 [W]
EnergyOutflow : -0.087192583 [W]
rho max/avg/min : 1.2016452 1.1917487 1.0912455
T   max/avg/min : 323.35792 296.2362 293.70002
P   max/avg/min : 101324.91 101316.16 101307.41
Prg max/avg/min : 101325 101324.93 101323.39
U   max/avg/min : 0.0003624997 -4.3287485e-05 -0.00067116557
Prg max-min : 1.6148085
 
Iteration Number = 4

DILUPBiCG:  Solving for Ux, Initial residual = 0.28709384, Final residual = 8.1619593e-05, No Iterations 2
DILUPBiCG:  Solving for Uy, Initial residual = 7.6243577e-05, Final residual = 2.250198e-08, No Iterations 2
DILUPBiCG:  Solving for Uz, Initial residual = 0.17779967, Final residual = 4.7241963e-06, No Iterations 2
DILUPBiCG:  Solving for h, Initial residual = 0.11215742, Final residual = 4.5662849e-05, No Iterations 1
GAMG:  Solving for p_rgh, Initial residual = 0.0064845856, Final residual = 2.7959551e-06, No Iterations 3
time step continuity errors : sum local = 2.4693747e-05, global = 4.0343438e-06, cumulative = -3.6346051e-05
ExecutionTime = 0.2 s  ClockTime = 1 s
Inflow      : -2.4279453e-07 [kg/s]
Outflow     : -2.3942989e-07 [kg/s]
EnergyInflow  : -0.071736605 [W]
EnergyOutflow : -0.070741524 [W]
rho max/avg/min : 1.2016451 1.1887958 1.0762129
T   max/avg/min : 327.87457 297.02853 293.70003
P   max/avg/min : 101324.91 101316.16 101307.41
Prg max/avg/min : 101325 101324.91 101323.17
U   max/avg/min : 0.00059013948 3.0225924e-05 -0.00051979777
Prg max-min : 1.8349515
 
Iteration Number = 5

DILUPBiCG:  Solving for Ux, Initial residual = 0.53668172, Final residual = 9.3924091e-05, No Iterations 2
DILUPBiCG:  Solving for Uy, Initial residual = 5.9948044e-05, Final residual = 1.5523987e-08, No Iterations 2
DILUPBiCG:  Solving for Uz, Initial residual = 0.17474464, Final residual = 2.4198818e-06, No Iterations 2
DILUPBiCG:  Solving for h, Initial residual = 0.088589279, Final residual = 4.6600104e-05, No Iterations 1
GAMG:  Solving for p_rgh, Initial residual = 0.0049132017, Final residual = 1.5854279e-06, No Iterations 3
time step continuity errors : sum local = 1.8193066e-05, global = 6.7900058e-06, cumulative = -2.9556046e-05
ExecutionTime = 0.23 s  ClockTime = 1 s
Inflow      : -2.0150208e-07 [kg/s]
Outflow     : -1.9583922e-07 [kg/s]
EnergyInflow  : -0.059536248 [W]
EnergyOutflow : -0.057860898 [W]
rho max/avg/min : 1.2016451 1.1858921 1.0635252
T   max/avg/min : 331.78569 297.81609 293.70003
P   max/avg/min : 101324.91 101316.16 101307.41
Prg max/avg/min : 101325 101324.88 101322.98
U   max/avg/min : 0.00087797622 0.00013724222 -0.00040868498
Prg max-min : 2.0208522
 
Iteration Number = 6

DILUPBiCG:  Solving for Ux, Initial residual = 0.49848966, Final residual = 7.191276e-05, No Iterations 2
DILUPBiCG:  Solving for Uy, Initial residual = 6.0186748e-05, Final residual = 1.5348447e-08, No Iterations 2
DILUPBiCG:  Solving for Uz, Initial residual = 0.19842811, Final residual = 4.2023764e-06, No Iterations 2
DILUPBiCG:  Solving for h, Initial residual = 0.073528697, Final residual = 5.0509231e-05, No Iterations 1
GAMG:  Solving for p_rgh, Initial residual = 0.0040156026, Final residual = 5.8285548e-07, No Iterations 4
time step continuity errors : sum local = 8.2385427e-06, global = -1.7010058e-06, cumulative = -3.1257051e-05
ExecutionTime = 0.26 s  ClockTime = 1 s
Inflow      : -1.6048781e-07 [kg/s]
Outflow     : -1.6190645e-07 [kg/s]
EnergyInflow  : -0.047418082 [W]
EnergyOutflow : -0.047832909 [W]
rho max/avg/min : 1.201645 1.1830279 1.052484
T   max/avg/min : 335.26614 298.60029 293.70004
P   max/avg/min : 101324.91 101316.16 101307.41
Prg max/avg/min : 101325 101324.86 101322.82
U   max/avg/min : 0.0012157826 0.00027732426 -0.00033806142
Prg max-min : 2.1823575
 
Iteration Number = 7

DILUPBiCG:  Solving for Ux, Initial residual = 0.4414968, Final residual = 6.1254427e-05, No Iterations 2
DILUPBiCG:  Solving for Uy, Initial residual = 6.1971013e-05, Final residual = 1.3556901e-08, No Iterations 2
DILUPBiCG:  Solving for Uz, Initial residual = 0.17521381, Final residual = 2.1255321e-06, No Iterations 2
DILUPBiCG:  Solving for h, Initial residual = 0.063024627, Final residual = 5.6736772e-05, No Iterations 1
GAMG:  Solving for p_rgh, Initial residual = 0.0036336686, Final residual = 8.287725e-07, No Iterations 4
time step continuity errors : sum local = 1.3903832e-05, global = 1.7677128e-07, cumulative = -3.108028e-05
ExecutionTime = 0.3 s  ClockTime = 1 s
Inflow      : -1.3525674e-07 [kg/s]
Outflow     : -1.3510932e-07 [kg/s]
EnergyInflow  : -0.039963255 [W]
EnergyOutflow : -0.0399119 [W]
rho max/avg/min : 1.201645 1.1801981 1.0426822
T   max/avg/min : 338.41783 299.38156 293.70004
P   max/avg/min : 101324.91 101316.16 101307.41
Prg max/avg/min : 101325 101324.84 101322.67
U   max/avg/min : 0.0016190608 0.00045831838 -0.00030325227
Prg max-min : 2.3259052
 
Iteration Number = 8

DILUPBiCG:  Solving for Ux, Initial residual = 0.40822641, Final residual = 5.5215134e-05, No Iterations 2
DILUPBiCG:  Solving for Uy, Initial residual = 7.3451198e-05, Final residual = 1.1724627e-08, No Iterations 2
DILUPBiCG:  Solving for Uz, Initial residual = 0.17598076, Final residual = 2.832672e-06, No Iterations 2
DILUPBiCG:  Solving for h, Initial residual = 0.055257613, Final residual = 1.758069e-06, No Iterations 2
GAMG:  Solving for p_rgh, Initial residual = 0.0034113524, Final residual = 1.514994e-06, No Iterations 4
time step continuity errors : sum local = 2.9423033e-05, global = 8.8065908e-06, cumulative = -2.2273689e-05
ExecutionTime = 0.33 s  ClockTime = 1 s
Inflow      : -1.2149733e-07 [kg/s]
Outflow     : -1.1415264e-07 [kg/s]
EnergyInflow  : -0.03589787 [W]
EnergyOutflow : -0.03371461 [W]
rho max/avg/min : 1.201645 1.177396 1.0338555
T   max/avg/min : 341.30711 300.16099 293.70004
P   max/avg/min : 101324.91 101316.16 101307.41
Prg max/avg/min : 101325 101324.82 101322.54
U   max/avg/min : 0.0020979456 0.00069502335 -0.00028864964
Prg max-min : 2.4550378
 
Iteration Number = 9

DILUPBiCG:  Solving for Ux, Initial residual = 0.28810686, Final residual = 3.7500716e-05, No Iterations 2
DILUPBiCG:  Solving for Uy, Initial residual = 9.6055009e-05, Final residual = 1.0237471e-08, No Iterations 2
DILUPBiCG:  Solving for Uz, Initial residual = 0.16364289, Final residual = 2.6133547e-06, No Iterations 2
DILUPBiCG:  Solving for h, Initial residual = 0.049308313, Final residual = 1.6959041e-06, No Iterations 2
GAMG:  Solving for p_rgh, Initial residual = 0.0031096347, Final residual = 5.7162791e-07, No Iterations 4
time step continuity errors : sum local = 1.2536794e-05, global = -9.6513198e-07, cumulative = -2.3238821e-05
ExecutionTime = 0.37 s  ClockTime = 1 s
Inflow      : -9.6881889e-08 [kg/s]
Outflow     : -9.7686809e-08 [kg/s]
EnergyInflow  : -0.028624936 [W]
EnergyOutflow : -0.028841459 [W]
rho max/avg/min : 1.2016449 1.1746225 1.0258141
T   max/avg/min : 343.98263 300.93782 293.70005
P   max/avg/min : 101324.91 101316.16 101307.41
Prg max/avg/min : 101325 101324.8 101322.43
U   max/avg/min : 0.0026611133 0.00099751752 -0.00028470846
Prg max-min : 2.5727491
 
Iteration Number = 10

DILUPBiCG:  Solving for Ux, Initial residual = 0.27683344, Final residual = 3.7018839e-05, No Iterations 2
DILUPBiCG:  Solving for Uy, Initial residual = 0.00012700303, Final residual = 7.2336139e-09, No Iterations 2
DILUPBiCG:  Solving for Uz, Initial residual = 0.15996424, Final residual = 3.4435105e-06, No Iterations 2
DILUPBiCG:  Solving for h, Initial residual = 0.044532591, Final residual = 2.4513482e-06, No Iterations 2
GAMG:  Solving for p_rgh, Initial residual = 0.0031783227, Final residual = 2.3093116e-06, No Iterations 4
time step continuity errors : sum local = 5.6638306e-05, global = 2.5473357e-05, cumulative = 2.2345358e-06
ExecutionTime = 0.41 s  ClockTime = 1 s
Inflow      : -1.0738248e-07 [kg/s]
Outflow     : -8.6137711e-08 [kg/s]
EnergyInflow  : -0.031727463 [W]
EnergyOutflow : -0.025417173 [W]
rho max/avg/min : 1.2016449 1.1718765 1.0184233
T   max/avg/min : 346.47896 301.71193 293.70006
P   max/avg/min : 101324.91 101316.16 101307.41
Prg max/avg/min : 101325 101324.78 101322.32
U   max/avg/min : 0.0033316346 0.0013760445 -0.00034581647
Prg max-min : 2.6808073
 
Iteration Number = 11

DILUPBiCG:  Solving for Ux, Initial residual = 0.18818411, Final residual = 2.4209218e-05, No Iterations 2
DILUPBiCG:  Solving for Uy, Initial residual = 0.00019418494, Final residual = 1.245593e-08, No Iterations 2
DILUPBiCG:  Solving for Uz, Initial residual = 0.1557615, Final residual = 4.3754993e-06, No Iterations 2
DILUPBiCG:  Solving for h, Initial residual = 0.040669295, Final residual = 4.1055117e-06, No Iterations 2
GAMG:  Solving for p_rgh, Initial residual = 0.0030395265, Final residual = 6.0038106e-07, No Iterations 4
time step continuity errors : sum local = 1.6079345e-05, global = 1.9510023e-06, cumulative = 4.1855381e-06
ExecutionTime = 0.44 s  ClockTime = 1 s
Inflow      : -8.081032e-08 [kg/s]
Outflow     : -7.9183185e-08 [kg/s]
EnergyInflow  : -0.023876395 [W]
EnergyOutflow : -0.023345037 [W]
rho max/avg/min : 1.2016446 1.1691567 1.0115827
T   max/avg/min : 348.82194 302.48325 293.7001
P   max/avg/min : 101324.91 101316.16 101307.41
Prg max/avg/min : 101325 101324.76 101322.22
U   max/avg/min : 0.0041336824 0.0018519824 -0.00039809362
Prg max-min : 2.7809537
 
Iteration Number = 12

DILUPBiCG:  Solving for Ux, Initial residual = 0.19099465, Final residual = 2.8370982e-05, No Iterations 2
DILUPBiCG:  Solving for Uy, Initial residual = 0.00025283234, Final residual = 1.1487652e-08, No Iterations 2
DILUPBiCG:  Solving for Uz, Initial residual = 0.15427015, Final residual = 5.2541201e-06, No Iterations 2
DILUPBiCG:  Solving for h, Initial residual = 0.037422914, Final residual = 4.7617708e-06, No Iterations 2
GAMG:  Solving for p_rgh, Initial residual = 0.0032207468, Final residual = 2.4841363e-06, No Iterations 4
time step continuity errors : sum local = 7.2630336e-05, global = 3.4062203e-05, cumulative = 3.8247741e-05
ExecutionTime = 0.48 s  ClockTime = 1 s
Inflow      : -1.0668057e-07 [kg/s]
Outflow     : -7.8272716e-08 [kg/s]
EnergyInflow  : -0.031520077 [W]
EnergyOutflow : -0.023051171 [W]
rho max/avg/min : 1.2016443 1.1664631 1.0052144
T   max/avg/min : 351.03183 303.25149 293.70017
P   max/avg/min : 101324.91 101316.16 101307.41
Prg max/avg/min : 101325 101324.74 101322.13
U   max/avg/min : 0.0050896561 0.0024267089 -0.00062373761
Prg max-min : 2.8738638
 
Iteration Number = 13

DILUPBiCG:  Solving for Ux, Initial residual = 0.12876384, Final residual = 2.076458e-05, No Iterations 2
DILUPBiCG:  Solving for Uy, Initial residual = 0.00035666948, Final residual = 1.9427222e-08, No Iterations 2
DILUPBiCG:  Solving for Uz, Initial residual = 0.15171944, Final residual = 7.3889996e-06, No Iterations 2
DILUPBiCG:  Solving for h, Initial residual = 0.034671254, Final residual = 7.3932288e-06, No Iterations 2
GAMG:  Solving for p_rgh, Initial residual = 0.0032224642, Final residual = 8.4455533e-07, No Iterations 4
time step continuity errors : sum local = 2.6246107e-05, global = 5.7662257e-06, cumulative = 4.4013966e-05
ExecutionTime = 0.51 s  ClockTime = 1 s
Inflow      : -9.0990545e-08 [kg/s]
Outflow     : -8.6181516e-08 [kg/s]
EnergyInflow  : -0.026884267 [W]
EnergyOutflow : -0.025352621 [W]
rho max/avg/min : 1.2016435 1.1637949 0.99925693
T   max/avg/min : 353.12464 304.01657 293.70029
P   max/avg/min : 101324.91 101316.16 101307.41
Prg max/avg/min : 101325 101324.72 101322.04
U   max/avg/min : 0.0062388742 0.0031349149 -0.00080059875
Prg max-min : 2.9611591
 
Iteration Number = 14

DILUPBiCG:  Solving for Ux, Initial residual = 0.13287914, Final residual = 2.5789713e-05, No Iterations 2
DILUPBiCG:  Solving for Uy, Initial residual = 0.00051965135, Final residual = 2.9798823e-08, No Iterations 2
DILUPBiCG:  Solving for Uz, Initial residual = 0.1484318, Final residual = 5.9652226e-06, No Iterations 2
DILUPBiCG:  Solving for h, Initial residual = 0.032308941, Final residual = 9.4068101e-06, No Iterations 2
GAMG:  Solving for p_rgh, Initial residual = 0.0035126755, Final residual = 7.2999322e-07, No Iterations 5
time step continuity errors : sum local = 2.4205415e-05, global = 1.5324155e-05, cumulative = 5.9338121e-05
ExecutionTime = 0.55 s  ClockTime = 1 s
Inflow      : -1.1578868e-07 [kg/s]
Outflow     : -1.0300834e-07 [kg/s]
EnergyInflow  : -0.034211178 [W]
EnergyOutflow : -0.030274385 [W]
rho max/avg/min : 1.2016426 1.1611527 0.99366013
T   max/avg/min : 355.11362 304.77805 293.70049
P   max/avg/min : 101324.91 101316.16 101307.41
Prg max/avg/min : 101325 101324.7 101321.96
U   max/avg/min : 0.0076074148 0.0039744567 -0.0011834078
Prg max-min : 3.042559
 
Iteration Number = 15

DILUPBiCG:  Solving for Ux, Initial residual = 0.11732623, Final residual = 2.6192559e-05, No Iterations 2
DILUPBiCG:  Solving for Uy, Initial residual = 0.00064783734, Final residual = 5.1310432e-08, No Iterations 2
DILUPBiCG:  Solving for Uz, Initial residual = 0.14531284, Final residual = 1.1000193e-05, No Iterations 2
DILUPBiCG:  Solving for h, Initial residual = 0.030216156, Final residual = 1.3786353e-05, No Iterations 2
GAMG:  Solving for p_rgh, Initial residual = 0.0039978995, Final residual = 1.5179954e-06, No Iterations 4
time step continuity errors : sum local = 5.2585522e-05, global = 1.8254138e-05, cumulative = 7.759226e-05
ExecutionTime = 0.59 s  ClockTime = 1 s
Inflow      : -1.4687195e-07 [kg/s]
Outflow     : -1.3164801e-07 [kg/s]
EnergyInflow  : -0.04339511 [W]
EnergyOutflow : -0.038665637 [W]
rho max/avg/min : 1.2016404 1.1585367 0.98838306
T   max/avg/min : 357.0096 305.53567 293.70082
P   max/avg/min : 101324.91 101316.16 101307.41
Prg max/avg/min : 101325 101324.68 101321.88
U   max/avg/min : 0.0092381048 0.0049632329 -0.0016592783
Prg max-min : 3.1196759
 
Iteration Number = 16

DILUPBiCG:  Solving for Ux, Initial residual = 0.12822321, Final residual = 3.3599638e-05, No Iterations 2
DILUPBiCG:  Solving for Uy, Initial residual = 0.00095158205, Final residual = 9.294397e-08, No Iterations 2
DILUPBiCG:  Solving for Uz, Initial residual = 0.13871757, Final residual = 7.7382314e-06, No Iterations 2
DILUPBiCG:  Solving for h, Initial residual = 0.028369624, Final residual = 2.1911959e-05, No Iterations 2
GAMG:  Solving for p_rgh, Initial residual = 0.004175749, Final residual = 7.7061495e-07, No Iterations 5
time step continuity errors : sum local = 2.7592592e-05, global = 7.8357006e-06, cumulative = 8.542796e-05
ExecutionTime = 0.63 s  ClockTime = 1 s
Inflow      : -1.7176504e-07 [kg/s]
Outflow     : -1.6523007e-07 [kg/s]
EnergyInflow  : -0.050750077 [W]
EnergyOutflow : -0.048487354 [W]
rho max/avg/min : 1.2016372 1.1559479 0.98339136
T   max/avg/min : 358.82179 306.28897 293.70137
P   max/avg/min : 101324.91 101316.16 101307.41
Prg max/avg/min : 101325 101324.66 101321.81
U   max/avg/min : 0.01116954 0.0061216755 -0.0022644173
Prg max-min : 3.1922651
 
Iteration Number = 17

DILUPBiCG:  Solving for Ux, Initial residual = 0.11824617, Final residual = 3.7516106e-05, No Iterations 2
DILUPBiCG:  Solving for Uy, Initial residual = 0.0011871133, Final residual = 1.4398091e-07, No Iterations 2
DILUPBiCG:  Solving for Uz, Initial residual = 0.13354676, Final residual = 1.1737598e-05, No Iterations 2
DILUPBiCG:  Solving for h, Initial residual = 0.026706841, Final residual = 2.0648073e-05, No Iterations 3
GAMG:  Solving for p_rgh, Initial residual = 0.0050530428, Final residual = 4.0891315e-06, No Iterations 4
time step continuity errors : sum local = 0.00015079503, global = 4.6713305e-05, cumulative = 0.00013214127
ExecutionTime = 0.66 s  ClockTime = 1 s
Inflow      : -2.6268653e-07 [kg/s]
Outflow     : -2.2372766e-07 [kg/s]
EnergyInflow  : -0.07761394 [W]
EnergyOutflow : -0.065628949 [W]
rho max/avg/min : 1.2016297 1.15338 0.9786553
T   max/avg/min : 360.55825 307.0393 293.70265
P   max/avg/min : 101324.91 101316.16 101307.41
Prg max/avg/min : 101325 101324.65 101321.74
U   max/avg/min : 0.013449053 0.0074429196 -0.0031532571
Prg max-min : 3.260999
 
Iteration Number = 18

DILUPBiCG:  Solving for Ux, Initial residual = 0.13090512, Final residual = 4.9604058e-05, No Iterations 2
DILUPBiCG:  Solving for Uy, Initial residual = 0.0015339375, Final residual = 2.6928344e-07, No Iterations 2
DILUPBiCG:  Solving for Uz, Initial residual = 0.1262488, Final residual = 1.1551462e-05, No Iterations 2
DILUPBiCG:  Solving for h, Initial residual = 0.025174381, Final residual = 3.6943049e-06, No Iterations 4
GAMG:  Solving for p_rgh, Initial residual = 0.0052940189, Final residual = 4.9002046e-06, No Iterations 4
time step continuity errors : sum local = 0.00018231733, global = 6.5187761e-05, cumulative = 0.00019732903
ExecutionTime = 0.69 s  ClockTime = 1 s
Inflow      : -3.3212272e-07 [kg/s]
Outflow     : -2.7775617e-07 [kg/s]
EnergyInflow  : -0.098129711 [W]
EnergyOutflow : -0.081390199 [W]
rho max/avg/min : 1.2016172 1.1508417 0.97415278
T   max/avg/min : 362.22475 307.78435 293.7048
P   max/avg/min : 101324.91 101316.16 101307.41
Prg max/avg/min : 101325 101324.63 101321.67
U   max/avg/min : 0.016110341 0.0089610837 -0.0041424518
Prg max-min : 3.3266558
 
Iteration Number = 19

DILUPBiCG:  Solving for Ux, Initial residual = 0.11424194, Final residual = 5.3288672e-05, No Iterations 2
DILUPBiCG:  Solving for Uy, Initial residual = 0.0018540175, Final residual = 4.7375707e-07, No Iterations 2
DILUPBiCG:  Solving for Uz, Initial residual = 0.11829595, Final residual = 1.1560999e-05, No Iterations 2
DILUPBiCG:  Solving for h, Initial residual = 0.023777214, Final residual = 6.9825967e-06, No Iterations 4
GAMG:  Solving for p_rgh, Initial residual = 0.005960026, Final residual = 2.0567777e-06, No Iterations 5
time step continuity errors : sum local = 7.7476133e-05, global = 2.9385445e-05, cumulative = 0.00022671447
ExecutionTime = 0.73 s  ClockTime = 1 s
Inflow      : -3.4419558e-07 [kg/s]
Outflow     : -3.1968814e-07 [kg/s]
EnergyInflow  : -0.10169678 [W]
EnergyOutflow : -0.093490205 [W]
rho max/avg/min : 1.2016096 1.1483329 0.96986113
T   max/avg/min : 363.8276 308.52397 293.70851
P   max/avg/min : 101324.91 101316.16 101307.41
Prg max/avg/min : 101325 101324.61 101321.61
U   max/avg/min : 0.019225157 0.010681154 -0.0053496574
Prg max-min : 3.3890772
 
Iteration Number = 20

DILUPBiCG:  Solving for Ux, Initial residual = 0.11559822, Final residual = 6.6203238e-05, No Iterations 2
DILUPBiCG:  Solving for Uy, Initial residual = 0.0020015145, Final residual = 6.8970178e-07, No Iterations 2
DILUPBiCG:  Solving for Uz, Initial residual = 0.11008393, Final residual = 1.200618e-05, No Iterations 2
DILUPBiCG:  Solving for h, Initial residual = 0.022486824, Final residual = 8.4770403e-06, No Iterations 5
GAMG:  Solving for p_rgh, Initial residual = 0.007382695, Final residual = 6.9588954e-06, No Iterations 4
time step continuity errors : sum local = 0.00026862529, global = 0.00010948645, cumulative = 0.00033620092
ExecutionTime = 0.77 s  ClockTime = 1 s
Inflow      : -4.6543441e-07 [kg/s]
Outflow     : -3.7412278e-07 [kg/s]
EnergyInflow  : -0.13751828 [W]
EnergyOutflow : -0.10916615 [W]
rho max/avg/min : 1.2016044 1.1458523 0.96576091
T   max/avg/min : 365.37227 309.25829 293.70998
P   max/avg/min : 101324.91 101316.16 101307.41
Prg max/avg/min : 101325 101324.59 101321.55
U   max/avg/min : 0.022807513 0.012579148 -0.006780982
Prg max-min : 3.4485304
 
Iteration Number = 21

DILUPBiCG:  Solving for Ux, Initial residual = 0.1042232, Final residual = 6.6904686e-05, No Iterations 2
DILUPBiCG:  Solving for Uy, Initial residual = 0.0028497733, Final residual = 1.5965417e-06, No Iterations 2
DILUPBiCG:  Solving for Uz, Initial residual = 0.10213459, Final residual = 1.2854702e-05, No Iterations 2
DILUPBiCG:  Solving for h, Initial residual = 0.021267811, Final residual = 5.9362283e-06, No Iterations 4
GAMG:  Solving for p_rgh, Initial residual = 0.0078289558, Final residual = 3.6189334e-06, No Iterations 4
time step continuity errors : sum local = 0.00014037322, global = 1.8928941e-05, cumulative = 0.00035512986
ExecutionTime = 0.8 s  ClockTime = 1 s
Inflow      : -4.1967606e-07 [kg/s]
Outflow     : -4.0388934e-07 [kg/s]
EnergyInflow  : -0.12399841 [W]
EnergyOutflow : -0.11739923 [W]
rho max/avg/min : 1.2015999 1.1434052 0.96183705
T   max/avg/min : 366.86283 309.98588 293.71107
P   max/avg/min : 101324.91 101316.16 101307.41
Prg max/avg/min : 101325 101324.57 101321.5
U   max/avg/min : 0.026899127 0.014712674 -0.0084919836
Prg max-min : 3.5051079
 
Iteration Number = 22

DILUPBiCG:  Solving for Ux, Initial residual = 0.099025415, Final residual = 6.9339911e-05, No Iterations 2
DILUPBiCG:  Solving for Uy, Initial residual = 0.0031998677, Final residual = 4.4923177e-08, No Iterations 3
DILUPBiCG:  Solving for Uz, Initial residual = 0.093442038, Final residual = 1.3851146e-05, No Iterations 2
DILUPBiCG:  Solving for h, Initial residual = 0.020137162, Final residual = 5.9001324e-06, No Iterations 4
GAMG:  Solving for p_rgh, Initial residual = 0.0082731127, Final residual = 5.917153e-06, No Iterations 4
time step continuity errors : sum local = 0.00023701013, global = 4.3324387e-05, cumulative = 0.00039845425
ExecutionTime = 0.84 s  ClockTime = 1 s
Inflow      : -4.09134e-07 [kg/s]
Outflow     : -3.7300149e-07 [kg/s]
EnergyInflow  : -0.12088363 [W]
EnergyOutflow : -0.10752333 [W]
rho max/avg/min : 1.2015974 1.1409939 0.95807499
T   max/avg/min : 368.30338 310.70599 293.71169
P   max/avg/min : 101324.91 101316.16 101307.41
Prg max/avg/min : 101325 101324.56 101321.44
U   max/avg/min : 0.031513865 0.017026084 -0.010792435
Prg max-min : 3.5591189
 
Iteration Number = 23

DILUPBiCG:  Solving for Ux, Initial residual = 0.095530998, Final residual = 7.3834074e-05, No Iterations 2
DILUPBiCG:  Solving for Uy, Initial residual = 0.0034624891, Final residual = 2.9905679e-06, No Iterations 2
DILUPBiCG:  Solving for Uz, Initial residual = 0.086730559, Final residual = 1.396276e-05, No Iterations 2
DILUPBiCG:  Solving for h, Initial residual = 0.019076258, Final residual = 6.5247917e-06, No Iterations 4
GAMG:  Solving for p_rgh, Initial residual = 0.0087729724, Final residual = 4.3925573e-06, No Iterations 4
time step continuity errors : sum local = 0.00018049966, global = 1.2296548e-05, cumulative = 0.0004107508
ExecutionTime = 0.87 s  ClockTime = 1 s
Inflow      : -3.2553226e-07 [kg/s]
Outflow     : -3.1527695e-07 [kg/s]
EnergyInflow  : -0.096182477 [W]
EnergyOutflow : -0.089476039 [W]
rho max/avg/min : 1.2015943 1.13862 0.95446196
T   max/avg/min : 369.69757 311.41809 293.71245
P   max/avg/min : 101324.91 101316.16 101307.41
Prg max/avg/min : 101325 101324.54 101321.39
U   max/avg/min : 0.036647926 0.019562406 -0.013330485
Prg max-min : 3.610699
 
Iteration Number = 24

DILUPBiCG:  Solving for Ux, Initial residual = 0.087156497, Final residual = 6.9214753e-05, No Iterations 2
DILUPBiCG:  Solving for Uy, Initial residual = 0.0040330653, Final residual = 1.2405852e-07, No Iterations 3
DILUPBiCG:  Solving for Uz, Initial residual = 0.078876778, Final residual = 1.5788162e-05, No Iterations 2
DILUPBiCG:  Solving for h, Initial residual = 0.018090491, Final residual = 6.8969566e-06, No Iterations 4
GAMG:  Solving for p_rgh, Initial residual = 0.0085786269, Final residual = 4.9069346e-06, No Iterations 4
time step continuity errors : sum local = 0.00021092433, global = 6.0990218e-05, cumulative = 0.00047174102
ExecutionTime = 0.91 s  ClockTime = 1 s
Inflow      : -2.1115081e-07 [kg/s]
Outflow     : -1.6028501e-07 [kg/s]
EnergyInflow  : -0.062387084 [W]
EnergyOutflow : -0.042425346 [W]
rho max/avg/min : 1.2015928 1.1362866 0.95098678
T   max/avg/min : 371.04855 312.12124 293.71283
P   max/avg/min : 101324.91 101316.16 101307.42
Prg max/avg/min : 101325 101324.52 101321.34
U   max/avg/min : 0.042367648 0.022277677 -0.0158713
Prg max-min : 3.6601301
 
Iteration Number = 25

DILUPBiCG:  Solving for Ux, Initial residual = 0.088627494, Final residual = 7.6376401e-05, No Iterations 2
DILUPBiCG:  Solving for Uy, Initial residual = 0.004903167, Final residual = 1.2589455e-07, No Iterations 3
DILUPBiCG:  Solving for Uz, Initial residual = 0.073201899, Final residual = 1.4975238e-05, No Iterations 2
DILUPBiCG:  Solving for h, Initial residual = 0.017166427, Final residual = 5.7938907e-06, No Iterations 4
GAMG:  Solving for p_rgh, Initial residual = 0.0087909876, Final residual = 5.9361855e-06, No Iterations 4
time step continuity errors : sum local = 0.00026663686, global = 4.8841921e-06, cumulative = 0.00047662521
ExecutionTime = 0.95 s  ClockTime = 1 s
Inflow      : 1.0717592e-07 [kg/s]
Outflow     : 1.1124933e-07 [kg/s]
EnergyInflow  : 0.031666433 [W]
EnergyOutflow : 0.039431284 [W]
rho max/avg/min : 1.2015898 1.1339958 0.94763917
T   max/avg/min : 372.35932 312.81477 293.71355
P   max/avg/min : 101324.91 101316.16 101307.42
Prg max/avg/min : 101325 101324.5 101321.29
U   max/avg/min : 0.048568746 0.025218487 -0.018405647
Prg max-min : 3.7075662
 
Iteration Number = 26

DILUPBiCG:  Solving for Ux, Initial residual = 0.078733374, Final residual = 7.1736562e-05, No Iterations 2
DILUPBiCG:  Solving for Uy, Initial residual = 0.0056935166, Final residual = 2.1498435e-06, No Iterations 3
DILUPBiCG:  Solving for Uz, Initial residual = 0.067576445, Final residual = 1.6504946e-05, No Iterations 2
DILUPBiCG:  Solving for h, Initial residual = 0.016310829, Final residual = 6.0607233e-06, No Iterations 4
GAMG:  Solving for p_rgh, Initial residual = 0.0084742875, Final residual = 4.3442101e-06, No Iterations 4
time step continuity errors : sum local = 0.00021074934, global = -2.3563189e-05, cumulative = 0.00045306202
ExecutionTime = 0.98 s  ClockTime = 1 s
Inflow      : 4.42461e-07 [kg/s]
Outflow     : 4.2280931e-07 [kg/s]
EnergyInflow  : 0.1307305 [W]
EnergyOutflow : 0.1334774 [W]
rho max/avg/min : 1.201589 1.1317511 0.9444099
T   max/avg/min : 373.63255 313.49768 293.71375
P   max/avg/min : 101324.91 101316.16 101307.42
Prg max/avg/min : 101325 101324.49 101321.25
U   max/avg/min : 0.055347673 0.028331038 -0.020768304
Prg max-min : 3.7529423
 
Iteration Number = 27

DILUPBiCG:  Solving for Ux, Initial residual = 0.077042951, Final residual = 7.2144022e-05, No Iterations 2
DILUPBiCG:  Solving for Uy, Initial residual = 0.0060922177, Final residual = 1.0249088e-08, No Iterations 4
DILUPBiCG:  Solving for Uz, Initial residual = 0.062336274, Final residual = 1.4962845e-05, No Iterations 2
DILUPBiCG:  Solving for h, Initial residual = 0.015497313, Final residual = 8.9079386e-06, No Iterations 4
GAMG:  Solving for p_rgh, Initial residual = 0.0066457943, Final residual = 3.5471023e-06, No Iterations 4
time step continuity errors : sum local = 0.00018529136, global = -2.2477257e-05, cumulative = 0.00043058476
ExecutionTime = 1.02 s  ClockTime = 1 s
Inflow      : 9.1174131e-07 [kg/s]
Outflow     : 8.9299529e-07 [kg/s]
EnergyInflow  : 0.26938509 [W]
EnergyOutflow : 0.27482572 [W]
rho max/avg/min : 1.2015892 1.1295544 0.94129154
T   max/avg/min : 374.87035 314.16932 293.71369
P   max/avg/min : 101324.91 101316.16 101307.42
Prg max/avg/min : 101325 101324.47 101321.2
U   max/avg/min : 0.0625699 0.031614387 -0.022991603
Prg max-min : 3.7968958
 
Iteration Number = 28

DILUPBiCG:  Solving for Ux, Initial residual = 0.068229177, Final residual = 3.7340023e-06, No Iterations 3
DILUPBiCG:  Solving for Uy, Initial residual = 0.0056787728, Final residual = 2.1595131e-07, No Iterations 3
DILUPBiCG:  Solving for Uz, Initial residual = 0.058304339, Final residual = 1.4965694e-05, No Iterations 2
DILUPBiCG:  Solving for h, Initial residual = 0.014740609, Final residual = 1.1960075e-05, No Iterations 5
GAMG:  Solving for p_rgh, Initial residual = 0.005621779, Final residual = 3.5831412e-06, No Iterations 4
time step continuity errors : sum local = 0.00020735246, global = 8.0263408e-05, cumulative = 0.00051084817
ExecutionTime = 1.06 s  ClockTime = 1 s
Inflow      : 1.3809015e-06 [kg/s]
Outflow     : 1.4478411e-06 [kg/s]
EnergyInflow  : 0.40800419 [W]
EnergyOutflow : 0.44162329 [W]
rho max/avg/min : 1.2015912 1.1274082 0.93827609
T   max/avg/min : 376.07512 314.82892 293.71321
P   max/avg/min : 101324.91 101316.17 101307.42
Prg max/avg/min : 101325 101324.46 101321.16
U   max/avg/min : 0.070236228 0.035049731 -0.024983053
Prg max-min : 3.8394708
 
Iteration Number = 29

DILUPBiCG:  Solving for Ux, Initial residual = 0.06678049, Final residual = 6.5690167e-05, No Iterations 2
DILUPBiCG:  Solving for Uy, Initial residual = 0.0064548555, Final residual = 6.1910046e-07, No Iterations 3
DILUPBiCG:  Solving for Uz, Initial residual = 0.053668872, Final residual = 1.3561152e-05, No Iterations 2
DILUPBiCG:  Solving for h, Initial residual = 0.014037625, Final residual = 1.0678347e-05, No Iterations 5
GAMG:  Solving for p_rgh, Initial residual = 0.0060306747, Final residual = 3.2449878e-06, No Iterations 4
time step continuity errors : sum local = 0.0001912995, global = -2.2716975e-05, cumulative = 0.0004881312
ExecutionTime = 1.1 s  ClockTime = 1 s
Inflow      : 2.1791799e-06 [kg/s]
Outflow     : 2.1602339e-06 [kg/s]
EnergyInflow  : 0.64386528 [W]
EnergyOutflow : 0.65555321 [W]
rho max/avg/min : 1.2015949 1.1253135 0.93535901
T   max/avg/min : 377.24799 315.47611 293.71229
P   max/avg/min : 101324.91 101316.16 101307.42
Prg max/avg/min : 101325 101324.44 101321.12
U   max/avg/min : 0.078386984 0.038670106 -0.026691397
Prg max-min : 3.8806607
 
Iteration Number = 30

DILUPBiCG:  Solving for Ux, Initial residual = 0.060128348, Final residual = 4.5151759e-06, No Iterations 3
DILUPBiCG:  Solving for Uy, Initial residual = 0.0077836231, Final residual = 6.9173199e-07, No Iterations 3
DILUPBiCG:  Solving for Uz, Initial residual = 0.052056128, Final residual = 1.3699684e-05, No Iterations 2
DILUPBiCG:  Solving for h, Initial residual = 0.013374362, Final residual = 1.2399564e-05, No Iterations 5
GAMG:  Solving for p_rgh, Initial residual = 0.0063587982, Final residual = 4.2845428e-06, No Iterations 4
time step continuity errors : sum local = 0.0002137394, global = 7.1148116e-06, cumulative = 0.00049524601
ExecutionTime = 1.14 s  ClockTime = 1 s
Inflow      : 3.0321868e-06 [kg/s]
Outflow     : 3.0381205e-06 [kg/s]
EnergyInflow  : 0.89589658 [W]
EnergyOutflow : 0.91896989 [W]
rho max/avg/min : 1.2016026 1.1232743 0.93253423
T   max/avg/min : 378.39072 316.10969 293.71042
P   max/avg/min : 101324.91 101316.17 101307.42
Prg max/avg/min : 101325 101324.42 101321.08
U   max/avg/min : 0.086989323 0.042434705 -0.028372256
Prg max-min : 3.9199502
 
Iteration Number = 31

DILUPBiCG:  Solving for Ux, Initial residual = 0.058561671, Final residual = 2.6362486e-06, No Iterations 3
DILUPBiCG:  Solving for Uy, Initial residual = 0.0088056447, Final residual = 8.3639509e-06, No Iterations 2
DILUPBiCG:  Solving for Uz, Initial residual = 0.047372259, Final residual = 1.1912609e-05, No Iterations 2
DILUPBiCG:  Solving for h, Initial residual = 0.012754737, Final residual = 2.7358989e-06, No Iterations 5
GAMG:  Solving for p_rgh, Initial residual = 0.0076504092, Final residual = 6.0039283e-06, No Iterations 4
time step continuity errors : sum local = 0.00026493638, global = 4.7538541e-06, cumulative = 0.00049999986
ExecutionTime = 1.17 s  ClockTime = 2 s
Inflow      : 4.0848018e-06 [kg/s]
Outflow     : 4.0887665e-06 [kg/s]
EnergyInflow  : 1.2069045 [W]
EnergyOutflow : 1.2340171 [W]
rho max/avg/min : 1.2016293 1.1212906 0.92979874
T   max/avg/min : 379.50397 316.72956 293.70389
P   max/avg/min : 101324.91 101316.16 101307.42
Prg max/avg/min : 101325 101324.41 101321.04
U   max/avg/min : 0.095960807 0.046343561 -0.029740265
Prg max-min : 3.9595447
 
Iteration Number = 32

DILUPBiCG:  Solving for Ux, Initial residual = 0.055091158, Final residual = 6.6736396e-06, No Iterations 3
DILUPBiCG:  Solving for Uy, Initial residual = 0.0095325138, Final residual = 4.0403307e-06, No Iterations 3
DILUPBiCG:  Solving for Uz, Initial residual = 0.047486755, Final residual = 1.3103159e-05, No Iterations 2
DILUPBiCG:  Solving for h, Initial residual = 0.012184316, Final residual = 5.3922819e-06, No Iterations 5
GAMG:  Solving for p_rgh, Initial residual = 0.011239742, Final residual = 5.498258e-06, No Iterations 4
time step continuity errors : sum local = 0.00021816376, global = 3.0427794e-05, cumulative = 0.00053042766
ExecutionTime = 1.21 s  ClockTime = 2 s
Inflow      : 5.2800683e-06 [kg/s]
Outflow     : 5.3054451e-06 [kg/s]
EnergyInflow  : 1.5600606 [W]
EnergyOutflow : 1.5988732 [W]
rho max/avg/min : 1.2016407 1.1193662 0.92714636
T   max/avg/min : 380.58965 317.33454 293.70111
P   max/avg/min : 101324.91 101316.17 101307.43
Prg max/avg/min : 101325 101324.39 101321.01
U   max/avg/min : 0.10526854 0.050369672 -0.030664319
Prg max-min : 3.9951976
 
Iteration Number = 33

DILUPBiCG:  Solving for Ux, Initial residual = 0.052638981, Final residual = 5.0939254e-05, No Iterations 2
DILUPBiCG:  Solving for Uy, Initial residual = 0.0094918247, Final residual = 9.7557294e-07, No Iterations 3
DILUPBiCG:  Solving for Uz, Initial residual = 0.042932211, Final residual = 1.1281098e-05, No Iterations 2
DILUPBiCG:  Solving for h, Initial residual = 0.011627796, Final residual = 1.0332223e-05, No Iterations 5
GAMG:  Solving for p_rgh, Initial residual = 0.012225997, Final residual = 7.5413417e-06, No Iterations 4
time step continuity errors : sum local = 0.0002713044, global = -1.1827372e-05, cumulative = 0.00051860029
ExecutionTime = 1.24 s  ClockTime = 2 s
Inflow      : 6.6950407e-06 [kg/s]
Outflow     : 6.6851767e-06 [kg/s]
EnergyInflow  : 1.9781315 [W]
EnergyOutflow : 2.0125556 [W]
rho max/avg/min : 1.2016444 1.1175022 0.92457288
T   max/avg/min : 381.64901 317.92426 293.7002
P   max/avg/min : 101324.91 101316.16 101307.42
Prg max/avg/min : 101325 101324.38 101320.97
U   max/avg/min : 0.11489439 0.054521921 -0.031299497
Prg max-min : 4.0340965
 
Iteration Number = 34

DILUPBiCG:  Solving for Ux, Initial residual = 0.054141425, Final residual = 1.3490339e-05, No Iterations 3
DILUPBiCG:  Solving for Uy, Initial residual = 0.0095658356, Final residual = 5.461265e-07, No Iterations 3
DILUPBiCG:  Solving for Uz, Initial residual = 0.0445893, Final residual = 1.3937522e-05, No Iterations 2
DILUPBiCG:  Solving for h, Initial residual = 0.011087561, Final residual = 3.7082968e-06, No Iterations 6
GAMG:  Solving for p_rgh, Initial residual = 0.013775957, Final residual = 1.0298001e-05, No Iterations 4
time step continuity errors : sum local = 0.00033368066, global = -5.1708402e-05, cumulative = 0.00046689188
ExecutionTime = 1.28 s  ClockTime = 2 s
Inflow      : 8.2346462e-06 [kg/s]
Outflow     : 8.1915215e-06 [kg/s]
EnergyInflow  : 2.4330267 [W]
EnergyOutflow : 2.4642683 [W]
rho max/avg/min : 1.2016455 1.1157008 0.92207574
T   max/avg/min : 382.68257 318.49803 293.69993
P   max/avg/min : 101324.91 101316.17 101307.43
Prg max/avg/min : 101325 101324.36 101320.93
U   max/avg/min : 0.12480069 0.058759038 -0.031658024
Prg max-min : 4.0662415
 
Iteration Number = 35

DILUPBiCG:  Solving for Ux, Initial residual = 0.051987479, Final residual = 2.7633708e-06, No Iterations 3
DILUPBiCG:  Solving for Uy, Initial residual = 0.0094843158, Final residual = 9.5261819e-07, No Iterations 3
DILUPBiCG:  Solving for Uz, Initial residual = 0.03981689, Final residual = 1.2165923e-05, No Iterations 2
DILUPBiCG:  Solving for h, Initial residual = 0.010577246, Final residual = 3.1849474e-06, No Iterations 7
GAMG:  Solving for p_rgh, Initial residual = 0.016005444, Final residual = 8.9119299e-06, No Iterations 4
time step continuity errors : sum local = 0.00026276839, global = -3.7683509e-05, cumulative = 0.00042920837
ExecutionTime = 1.32 s  ClockTime = 2 s
Inflow      : 1.001092e-05 [kg/s]
Outflow     : 9.9794917e-06 [kg/s]
EnergyInflow  : 2.9578484 [W]
EnergyOutflow : 2.9998891 [W]
rho max/avg/min : 1.2016458 1.113962 0.91965078
T   max/avg/min : 383.69166 319.0557 293.69976
P   max/avg/min : 101324.91 101316.16 101307.42
Prg max/avg/min : 101325 101324.35 101320.89
U   max/avg/min : 0.13498344 0.063118002 -0.03184222
Prg max-min : 4.1055121
 
Iteration Number = 36

DILUPBiCG:  Solving for Ux, Initial residual = 0.057922292, Final residual = 1.0623722e-05, No Iterations 3
DILUPBiCG:  Solving for Uy, Initial residual = 0.0099433909, Final residual = 6.8390253e-07, No Iterations 3
DILUPBiCG:  Solving for Uz, Initial residual = 0.042909395, Final residual = 1.6679582e-05, No Iterations 2
DILUPBiCG:  Solving for h, Initial residual = 0.010094278, Final residual = 5.8644804e-06, No Iterations 5
GAMG:  Solving for p_rgh, Initial residual = 0.023017653, Final residual = 1.4519227e-05, No Iterations 4
time step continuity errors : sum local = 0.00039762481, global = -8.2231504e-06, cumulative = 0.00042098522
ExecutionTime = 1.36 s  ClockTime = 2 s
Inflow      : 1.1948028e-05 [kg/s]
Outflow     : 1.194117e-05 [kg/s]
EnergyInflow  : 3.5301908 [W]
EnergyOutflow : 3.5878357 [W]
rho max/avg/min : 1.2016459 1.1122898 0.91729455
T   max/avg/min : 384.67722 319.59606 293.69954
P   max/avg/min : 101324.91 101316.16 101307.43
Prg max/avg/min : 101325 101324.34 101320.86
U   max/avg/min : 0.1453713 0.067572489 -0.0317277
Prg max-min : 4.1355497
 
Iteration Number = 37

DILUPBiCG:  Solving for Ux, Initial residual = 0.05255444, Final residual = 5.0247316e-05, No Iterations 2
DILUPBiCG:  Solving for Uy, Initial residual = 0.011365416, Final residual = 1.002876e-06, No Iterations 3
DILUPBiCG:  Solving for Uz, Initial residual = 0.038376621, Final residual = 1.4824291e-05, No Iterations 2
DILUPBiCG:  Solving for h, Initial residual = 0.0096192628, Final residual = 5.7386989e-06, No Iterations 5
GAMG:  Solving for p_rgh, Initial residual = 0.023330392, Final residual = 9.0243515e-06, No Iterations 4
time step continuity errors : sum local = 0.00023347455, global = -3.6210586e-05, cumulative = 0.00038477464
ExecutionTime = 1.39 s  ClockTime = 2 s
Inflow      : 1.400041e-05 [kg/s]
Outflow     : 1.3970211e-05 [kg/s]
EnergyInflow  : 4.136592 [W]
EnergyOutflow : 4.1961679 [W]
rho max/avg/min : 1.2016459 1.1106823 0.91500469
T   max/avg/min : 385.63991 320.1195 293.69928
P   max/avg/min : 101324.91 101316.16 101307.42
Prg max/avg/min : 101325 101324.32 101320.83
U   max/avg/min : 0.15595392 0.072048099 -0.03122773
Prg max-min : 4.1716672
 
Iteration Number = 38

DILUPBiCG:  Solving for Ux, Initial residual = 0.06388338, Final residual = 8.1117729e-06, No Iterations 3
DILUPBiCG:  Solving for Uy, Initial residual = 0.012654146, Final residual = 2.7815274e-06, No Iterations 3
DILUPBiCG:  Solving for Uz, Initial residual = 0.039128649, Final residual = 1.7592246e-05, No Iterations 2
DILUPBiCG:  Solving for h, Initial residual = 0.0091345606, Final residual = 6.050559e-06, No Iterations 5
GAMG:  Solving for p_rgh, Initial residual = 0.023242014, Final residual = 4.2305339e-06, No Iterations 4
time step continuity errors : sum local = 0.0001025686, global = 4.234737e-06, cumulative = 0.00038900937
ExecutionTime = 1.43 s  ClockTime = 2 s
Inflow      : 1.6356031e-05 [kg/s]
Outflow     : 1.6359563e-05 [kg/s]
EnergyInflow  : 4.8325889 [W]
EnergyOutflow : 4.9117014 [W]
rho max/avg/min : 1.2016459 1.1091436 0.91277891
T   max/avg/min : 386.58027 320.62482 293.69898
P   max/avg/min : 101324.91 101316.16 101307.42
Prg max/avg/min : 101325 101324.31 101320.79
U   max/avg/min : 0.16674395 0.076665417 -0.029794779
Prg max-min : 4.2047432
 
Iteration Number = 39

DILUPBiCG:  Solving for Ux, Initial residual = 0.05174111, Final residual = 4.2009476e-06, No Iterations 3
DILUPBiCG:  Solving for Uy, Initial residual = 0.014689143, Final residual = 1.2099227e-06, No Iterations 3
DILUPBiCG:  Solving for Uz, Initial residual = 0.038328371, Final residual = 1.9504498e-05, No Iterations 2
DILUPBiCG:  Solving for h, Initial residual = 0.0086787751, Final residual = 7.656408e-06, No Iterations 5
GAMG:  Solving for p_rgh, Initial residual = 0.027758338, Final residual = 1.0757863e-05, No Iterations 4
time step continuity errors : sum local = 0.00024882491, global = -0.0001037311, cumulative = 0.00028527828
ExecutionTime = 1.47 s  ClockTime = 2 s
Inflow      : 1.8548061e-05 [kg/s]
Outflow     : 1.8461549e-05 [kg/s]
EnergyInflow  : 5.4802509 [W]
EnergyOutflow : 5.5425409 [W]
rho max/avg/min : 1.2016459 1.1076727 0.91061462
T   max/avg/min : 387.49907 321.11213 293.69863
P   max/avg/min : 101324.91 101316.16 101307.43
Prg max/avg/min : 101325 101324.3 101320.77
U   max/avg/min : 0.17762031 0.081190826 -0.028855857
Prg max-min : 4.2332857
 
Iteration Number = 40

DILUPBiCG:  Solving for Ux, Initial residual = 0.058083053, Final residual = 3.0023993e-06, No Iterations 3
DILUPBiCG:  Solving for Uy, Initial residual = 0.014849112, Final residual = 1.2998194e-06, No Iterations 3
DILUPBiCG:  Solving for Uz, Initial residual = 0.033795108, Final residual = 1.5939396e-05, No Iterations 2
DILUPBiCG:  Solving for h, Initial residual = 0.0082392536, Final residual = 4.2849653e-06, No Iterations 5
GAMG:  Solving for p_rgh, Initial residual = 0.034119279, Final residual = 1.3903021e-05, No Iterations 4
time step continuity errors : sum local = 0.00031267411, global = 4.171119e-05, cumulative = 0.00032698947
ExecutionTime = 1.5 s  ClockTime = 2 s
Inflow      : 2.0879981e-05 [kg/s]
Outflow     : 2.0914768e-05 [kg/s]
EnergyInflow  : 6.1692452 [W]
EnergyOutflow : 6.2779978 [W]
rho max/avg/min : 1.2016459 1.1062696 0.90850902
T   max/avg/min : 388.39717 321.58124 293.69831
P   max/avg/min : 101324.91 101316.16 101307.42
Prg max/avg/min : 101325 101324.28 101320.73
U   max/avg/min : 0.18867478 0.085793222 -0.02704731
Prg max-min : 4.2704016
 
Iteration Number = 41

DILUPBiCG:  Solving for Ux, Initial residual = 0.037807381, Final residual = 2.0325991e-06, No Iterations 3
DILUPBiCG:  Solving for Uy, Initial residual = 0.015281088, Final residual = 1.295324e-06, No Iterations 3
DILUPBiCG:  Solving for Uz, Initial residual = 0.036035946, Final residual = 2.0464901e-05, No Iterations 2
DILUPBiCG:  Solving for h, Initial residual = 0.0077959441, Final residual = 6.9768114e-06, No Iterations 8
GAMG:  Solving for p_rgh, Initial residual = 0.030126371, Final residual = 6.5395688e-06, No Iterations 4
time step continuity errors : sum local = 0.0001393738, global = 3.1975371e-05, cumulative = 0.00035896484
ExecutionTime = 1.54 s  ClockTime = 2 s
Inflow      : 2.3438247e-05 [kg/s]
Outflow     : 2.3464915e-05 [kg/s]
EnergyInflow  : 6.9251161 [W]
EnergyOutflow : 7.0426032 [W]
rho max/avg/min : 1.2016459 1.1049351 0.90646044
T   max/avg/min : 389.27491 322.0318 293.69792
P   max/avg/min : 101324.91 101316.16 101307.42
Prg max/avg/min : 101325 101324.27 101320.7
U   max/avg/min : 0.19988016 0.0904802 -0.024764059
Prg max-min : 4.2998515
 
Iteration Number = 42

DILUPBiCG:  Solving for Ux, Initial residual = 0.046672179, Final residual = 4.2042149e-05, No Iterations 2
DILUPBiCG:  Solving for Uy, Initial residual = 0.015269316, Final residual = 7.4342109e-07, No Iterations 3
DILUPBiCG:  Solving for Uz, Initial residual = 0.032794041, Final residual = 1.7707591e-05, No Iterations 2
DILUPBiCG:  Solving for h, Initial residual = 0.0073733837, Final residual = 4.4033366e-06, No Iterations 7
GAMG:  Solving for p_rgh, Initial residual = 0.033317421, Final residual = 2.1756449e-05, No Iterations 3
time step continuity errors : sum local = 0.00044006336, global = 0.00015001916, cumulative = 0.000508984
ExecutionTime = 1.58 s  ClockTime = 2 s
Inflow      : 2.5727489e-05 [kg/s]
Outflow     : 2.5852605e-05 [kg/s]
EnergyInflow  : 7.6015006 [W]
EnergyOutflow : 7.7591161 [W]
rho max/avg/min : 1.2016459 1.1036652 0.9044679
T   max/avg/min : 390.13248 322.4648 293.69753
P   max/avg/min : 101324.91 101316.16 101307.42
Prg max/avg/min : 101325 101324.26 101320.67
U   max/avg/min : 0.21121843 0.095068451 -0.02243985
Prg max-min : 4.330065
 
Iteration Number = 43

DILUPBiCG:  Solving for Ux, Initial residual = 0.029954986, Final residual = 1.0605827e-05, No Iterations 3
DILUPBiCG:  Solving for Uy, Initial residual = 0.015673098, Final residual = 1.0276712e-06, No Iterations 3
DILUPBiCG:  Solving for Uz, Initial residual = 0.030802692, Final residual = 1.6195354e-05, No Iterations 2
DILUPBiCG:  Solving for h, Initial residual = 0.0069777662, Final residual = 2.091188e-06, No Iterations 8
GAMG:  Solving for p_rgh, Initial residual = 0.031372298, Final residual = 3.0699928e-05, No Iterations 3
time step continuity errors : sum local = 0.00059026928, global = 8.2111977e-05, cumulative = 0.00059109597
ExecutionTime = 1.61 s  ClockTime = 2 s
Inflow      : 2.8496339e-05 [kg/s]
Outflow     : 2.856482e-05 [kg/s]
EnergyInflow  : 8.4195909 [W]
EnergyOutflow : 8.5717132 [W]
rho max/avg/min : 1.2016459 1.1024576 0.90252818
T   max/avg/min : 390.97095 322.8806 293.69713
P   max/avg/min : 101324.91 101316.15 101307.4
Prg max/avg/min : 101325 101324.24 101320.63
U   max/avg/min : 0.22276101 0.099858938 -0.019296481
Prg max-min : 4.3695854
 
Iteration Number = 44

DILUPBiCG:  Solving for Ux, Initial residual = 0.043049379, Final residual = 3.4257609e-05, No Iterations 2
DILUPBiCG:  Solving for Uy, Initial residual = 0.015904741, Final residual = 2.4975052e-06, No Iterations 3
DILUPBiCG:  Solving for Uz, Initial residual = 0.033938495, Final residual = 1.9995641e-05, No Iterations 2
DILUPBiCG:  Solving for h, Initial residual = 0.0065655863, Final residual = 8.9997945e-07, No Iterations 8
GAMG:  Solving for p_rgh, Initial residual = 0.032617635, Final residual = 3.0835636e-05, No Iterations 3
time step continuity errors : sum local = 0.00054682979, global = -0.00012909305, cumulative = 0.00046200293
ExecutionTime = 1.65 s  ClockTime = 2 s
Inflow      : 3.1317067e-05 [kg/s]
Outflow     : 3.1209403e-05 [kg/s]
EnergyInflow  : 9.2530095 [W]
EnergyOutflow : 9.3642293 [W]
rho max/avg/min : 1.2016459 1.1013121 0.9006404
T   max/avg/min : 391.7904 323.27913 293.69667
P   max/avg/min : 101324.91 101316.15 101307.41
Prg max/avg/min : 101325 101324.23 101320.6
U   max/avg/min : 0.23447541 0.10465102 -0.015101239
Prg max-min : 4.393564
 
Iteration Number = 45

DILUPBiCG:  Solving for Ux, Initial residual = 0.027770838, Final residual = 1.5364154e-06, No Iterations 3
DILUPBiCG:  Solving for Uy, Initial residual = 0.016180426, Final residual = 4.0938471e-06, No Iterations 3
DILUPBiCG:  Solving for Uz, Initial residual = 0.029051982, Final residual = 1.5348891e-05, No Iterations 2
DILUPBiCG:  Solving for h, Initial residual = 0.0061779403, Final residual = 3.2794454e-06, No Iterations 7
GAMG:  Solving for p_rgh, Initial residual = 0.030817593, Final residual = 2.0990412e-05, No Iterations 3
time step continuity errors : sum local = 0.0003469388, global = -4.5166961e-05, cumulative = 0.00041683596
ExecutionTime = 1.69 s  ClockTime = 2 s
Inflow      : 3.3630386e-05 [kg/s]
Outflow     : 3.3592716e-05 [kg/s]
EnergyInflow  : 9.9365077 [W]
EnergyOutflow : 10.078962 [W]
rho max/avg/min : 1.2016459 1.1002249 0.89880254
T   max/avg/min : 392.59154 323.66123 293.69621
P   max/avg/min : 101324.91 101316.15 101307.4
Prg max/avg/min : 101325 101324.22 101320.57
U   max/avg/min : 0.24626609 0.10925661 -0.011063419
Prg max-min : 4.4232157
 
Iteration Number = 46

DILUPBiCG:  Solving for Ux, Initial residual = 0.036565703, Final residual = 2.9125406e-05, No Iterations 2
DILUPBiCG:  Solving for Uy, Initial residual = 0.016177791, Final residual = 1.3132917e-06, No Iterations 3
DILUPBiCG:  Solving for Uz, Initial residual = 0.027436661, Final residual = 1.4054704e-05, No Iterations 2
DILUPBiCG:  Solving for h, Initial residual = 0.0058360976, Final residual = 5.0161549e-06, No Iterations 7
GAMG:  Solving for p_rgh, Initial residual = 0.041340622, Final residual = 2.1314823e-05, No Iterations 3
time step continuity errors : sum local = 0.00033286289, global = 9.3403315e-05, cumulative = 0.00051023928
ExecutionTime = 1.73 s  ClockTime = 2 s
Inflow      : 3.5824622e-05 [kg/s]
Outflow     : 3.590252e-05 [kg/s]
EnergyInflow  : 10.584821 [W]
EnergyOutflow : 10.771652 [W]
rho max/avg/min : 1.2016458 1.0991908 0.89701437
T   max/avg/min : 393.37415 324.02817 293.69576
P   max/avg/min : 101324.91 101316.15 101307.4
Prg max/avg/min : 101325 101324.21 101320.55
U   max/avg/min : 0.25823477 0.11384274 -0.0061694054
Prg max-min : 4.4526657
 
Iteration Number = 47

DILUPBiCG:  Solving for Ux, Initial residual = 0.027955843, Final residual = 1.4605058e-06, No Iterations 3
DILUPBiCG:  Solving for Uy, Initial residual = 0.015581967, Final residual = 1.0769952e-06, No Iterations 3
DILUPBiCG:  Solving for Uz, Initial residual = 0.02651599, Final residual = 1.3552353e-05, No Iterations 2
DILUPBiCG:  Solving for h, Initial residual = 0.0055074026, Final residual = 3.8033194e-06, No Iterations 5
GAMG:  Solving for p_rgh, Initial residual = 0.023982219, Final residual = 2.2521248e-05, No Iterations 3
time step continuity errors : sum local = 0.00033880761, global = -1.5297223e-05, cumulative = 0.00049494206
ExecutionTime = 1.76 s  ClockTime = 2 s
Inflow      : 3.8002317e-05 [kg/s]
Outflow     : 3.7989559e-05 [kg/s]
EnergyInflow  : 11.228248 [W]
EnergyOutflow : 11.398038 [W]
rho max/avg/min : 1.2016458 1.0982103 0.89527211
T   max/avg/min : 394.13967 324.37964 293.69527
P   max/avg/min : 101324.91 101316.15 101307.4
Prg max/avg/min : 101325 101324.2 101320.52
U   max/avg/min : 0.27029553 0.11839327 -0.0010520356
Prg max-min : 4.4804868
 
Iteration Number = 48

DILUPBiCG:  Solving for Ux, Initial residual = 0.033346203, Final residual = 1.4690007e-06, No Iterations 3
DILUPBiCG:  Solving for Uy, Initial residual = 0.015335666, Final residual = 1.3394881e-06, No Iterations 3
DILUPBiCG:  Solving for Uz, Initial residual = 0.024987198, Final residual = 1.2575066e-05, No Iterations 2
DILUPBiCG:  Solving for h, Initial residual = 0.0051996335, Final residual = 1.4036135e-06, No Iterations 6
GAMG:  Solving for p_rgh, Initial residual = 0.019688099, Final residual = 1.6748548e-05, No Iterations 3
time step continuity errors : sum local = 0.00024746291, global = -9.6524184e-05, cumulative = 0.00039841787
ExecutionTime = 1.8 s  ClockTime = 2 s
Inflow      : 4.0152149e-05 [kg/s]
Outflow     : 4.0071648e-05 [kg/s]
EnergyInflow  : 11.863442 [W]
EnergyOutflow : 12.022231 [W]
rho max/avg/min : 1.2016458 1.0972785 0.89357601
T   max/avg/min : 394.88778 324.71681 293.69477
P   max/avg/min : 101324.91 101316.15 101307.39
Prg max/avg/min : 101325 101324.19 101320.49
U   max/avg/min : 0.28257018 0.12289488 0
Prg max-min : 4.5079322
 
Iteration Number = 49

DILUPBiCG:  Solving for Ux, Initial residual = 0.029777245, Final residual = 1.2595488e-06, No Iterations 3
DILUPBiCG:  Solving for Uy, Initial residual = 0.016168912, Final residual = 3.140973e-07, No Iterations 4
DILUPBiCG:  Solving for Uz, Initial residual = 0.023901256, Final residual = 1.1696109e-05, No Iterations 2
DILUPBiCG:  Solving for h, Initial residual = 0.0049074549, Final residual = 1.3426195e-06, No Iterations 6
GAMG:  Solving for p_rgh, Initial residual = 0.018455756, Final residual = 7.0535258e-06, No Iterations 4
time step continuity errors : sum local = 0.00010193684, global = -3.9507996e-05, cumulative = 0.00035890988
ExecutionTime = 1.83 s  ClockTime = 2 s
Inflow      : 4.2008716e-05 [kg/s]
Outflow     : 4.1975767e-05 [kg/s]
EnergyInflow  : 12.411988 [W]
EnergyOutflow : 12.593033 [W]
rho max/avg/min : 1.2016458 1.0963935 0.89192416
T   max/avg/min : 395.6191 325.04006 293.69423
P   max/avg/min : 101324.91 101316.15 101307.4
Prg max/avg/min : 101325 101324.19 101320.47
U   max/avg/min : 0.29494689 0.12724993 0
Prg max-min : 4.5293151
 
Iteration Number = 50

DILUPBiCG:  Solving for Ux, Initial residual = 0.028471041, Final residual = 1.1841255e-06, No Iterations 3
DILUPBiCG:  Solving for Uy, Initial residual = 0.016763954, Final residual = 1.941438e-06, No Iterations 3
DILUPBiCG:  Solving for Uz, Initial residual = 0.020841145, Final residual = 9.4044169e-06, No Iterations 2
DILUPBiCG:  Solving for h, Initial residual = 0.0046363683, Final residual = 3.3188228e-06, No Iterations 5
GAMG:  Solving for p_rgh, Initial residual = 0.017022026, Final residual = 1.6269835e-05, No Iterations 3
time step continuity errors : sum local = 0.0002310193, global = -5.32137e-05, cumulative = 0.00030569618
ExecutionTime = 1.87 s  ClockTime = 2 s
Inflow      : 4.3537668e-05 [kg/s]
Outflow     : 4.3493287e-05 [kg/s]
EnergyInflow  : 12.863735 [W]
EnergyOutflow : 13.048598 [W]
rho max/avg/min : 1.2016458 1.0955519 0.89031623
T   max/avg/min : 396.33361 325.35021 293.69371
P   max/avg/min : 101324.91 101316.15 101307.4
Prg max/avg/min : 101325 101324.18 101320.44
U   max/avg/min : 0.30735446 0.13143536 0
Prg max-min : 4.5535327
 
Iteration Number = 51

DILUPBiCG:  Solving for Ux, Initial residual = 0.027962945, Final residual = 9.5701217e-07, No Iterations 3
DILUPBiCG:  Solving for Uy, Initial residual = 0.017114138, Final residual = 1.0344004e-06, No Iterations 3
DILUPBiCG:  Solving for Uz, Initial residual = 0.0194185, Final residual = 8.7803825e-06, No Iterations 2
DILUPBiCG:  Solving for h, Initial residual = 0.0043860866, Final residual = 2.2069376e-06, No Iterations 5
GAMG:  Solving for p_rgh, Initial residual = 0.014830118, Final residual = 3.9942137e-06, No Iterations 4
time step continuity errors : sum local = 5.6171953e-05, global = -1.9769041e-05, cumulative = 0.00028592714
ExecutionTime = 1.91 s  ClockTime = 2 s
Inflow      : 4.4781724e-05 [kg/s]
Outflow     : 4.4765236e-05 [kg/s]
EnergyInflow  : 13.231307 [W]
EnergyOutflow : 13.430772 [W]
rho max/avg/min : 1.2016458 1.0947503 0.88874988
T   max/avg/min : 397.03211 325.64802 293.69317
P   max/avg/min : 101324.91 101316.15 101307.4
Prg max/avg/min : 101325 101324.17 101320.42
U   max/avg/min : 0.31977358 0.13544247 0
Prg max-min : 4.572323
 
Iteration Number = 52

DILUPBiCG:  Solving for Ux, Initial residual = 0.027039902, Final residual = 2.6941954e-05, No Iterations 2
DILUPBiCG:  Solving for Uy, Initial residual = 0.017573558, Final residual = 3.9348914e-06, No Iterations 3
DILUPBiCG:  Solving for Uz, Initial residual = 0.016702065, Final residual = 6.8034779e-06, No Iterations 2
DILUPBiCG:  Solving for h, Initial residual = 0.0041550328, Final residual = 3.1960825e-06, No Iterations 5
GAMG:  Solving for p_rgh, Initial residual = 0.014240835, Final residual = 1.0291684e-05, No Iterations 3
time step continuity errors : sum local = 0.0001435347, global = 2.2388823e-05, cumulative = 0.00030831596
ExecutionTime = 1.94 s  ClockTime = 2 s
Inflow      : 4.5753713e-05 [kg/s]
Outflow     : 4.5772385e-05 [kg/s]
EnergyInflow  : 13.518493 [W]
EnergyOutflow : 13.734045 [W]
rho max/avg/min : 1.2016458 1.0939867 0.88722485
T   max/avg/min : 397.71458 325.93398 293.69263
P   max/avg/min : 101324.91 101316.15 101307.4
Prg max/avg/min : 101325 101324.17 101320.4
U   max/avg/min : 0.33218696 0.13929588 0
Prg max-min : 4.5960328
 
Iteration Number = 53

DILUPBiCG:  Solving for Ux, Initial residual = 0.026263433, Final residual = 1.8257308e-06, No Iterations 3
DILUPBiCG:  Solving for Uy, Initial residual = 0.018710824, Final residual = 1.1592051e-06, No Iterations 3
DILUPBiCG:  Solving for Uz, Initial residual = 0.015935211, Final residual = 6.7740132e-06, No Iterations 2
DILUPBiCG:  Solving for h, Initial residual = 0.0039417086, Final residual = 2.9386819e-06, No Iterations 5
GAMG:  Solving for p_rgh, Initial residual = 0.013375239, Final residual = 8.2230754e-06, No Iterations 4
time step continuity errors : sum local = 0.00011440412, global = -4.4716772e-07, cumulative = 0.00030786879
ExecutionTime = 1.98 s  ClockTime = 2 s
Inflow      : 4.6739227e-05 [kg/s]
Outflow     : 4.6738854e-05 [kg/s]
EnergyInflow  : 13.809675 [W]
EnergyOutflow : 14.024909 [W]
rho max/avg/min : 1.2016458 1.0932591 0.88573918
T   max/avg/min : 398.38167 326.20854 293.69208
P   max/avg/min : 101324.91 101316.15 101307.4
Prg max/avg/min : 101325 101324.16 101320.38
U   max/avg/min : 0.34458038 0.14307141 0
Prg max-min : 4.6174485
 
Iteration Number = 54

DILUPBiCG:  Solving for Ux, Initial residual = 0.024745208, Final residual = 2.4048655e-05, No Iterations 2
DILUPBiCG:  Solving for Uy, Initial residual = 0.020315983, Final residual = 1.3291707e-06, No Iterations 3
DILUPBiCG:  Solving for Uz, Initial residual = 0.014906434, Final residual = 6.1559617e-06, No Iterations 2
DILUPBiCG:  Solving for h, Initial residual = 0.0037396387, Final residual = 2.294332e-06, No Iterations 5
GAMG:  Solving for p_rgh, Initial residual = 0.01299486, Final residual = 1.2433477e-05, No Iterations 3
time step continuity errors : sum local = 0.00017232891, global = -7.2008617e-05, cumulative = 0.00023586017
ExecutionTime = 2.01 s  ClockTime = 2 s
Inflow      : 4.7611772e-05 [kg/s]
Outflow     : 4.7551717e-05 [kg/s]
EnergyInflow  : 14.067479 [W]
EnergyOutflow : 14.270094 [W]
rho max/avg/min : 1.2016458 1.0925659 0.88429153
T   max/avg/min : 399.03385 326.47209 293.69153
P   max/avg/min : 101324.91 101316.15 101307.4
Prg max/avg/min : 101325 101324.16 101320.36
U   max/avg/min : 0.35689265 0.14674238 0
Prg max-min : 4.6380655
 
Iteration Number = 55

DILUPBiCG:  Solving for Ux, Initial residual = 0.024810984, Final residual = 2.7692001e-06, No Iterations 3
DILUPBiCG:  Solving for Uy, Initial residual = 0.019477636, Final residual = 9.4334746e-07, No Iterations 3
DILUPBiCG:  Solving for Uz, Initial residual = 0.013881463, Final residual = 5.7937065e-06, No Iterations 2
DILUPBiCG:  Solving for h, Initial residual = 0.0035523718, Final residual = 2.759952e-06, No Iterations 5
GAMG:  Solving for p_rgh, Initial residual = 0.012563539, Final residual = 6.8706437e-06, No Iterations 4
time step continuity errors : sum local = 9.4907566e-05, global = -1.6819855e-05, cumulative = 0.00021904032
ExecutionTime = 2.05 s  ClockTime = 2 s
Inflow      : 4.8207039e-05 [kg/s]
Outflow     : 4.8193011e-05 [kg/s]
EnergyInflow  : 14.243358 [W]
EnergyOutflow : 14.464384 [W]
rho max/avg/min : 1.2016458 1.0919059 0.88288144
T   max/avg/min : 399.67116 326.72491 293.69097
P   max/avg/min : 101324.91 101316.15 101307.4
Prg max/avg/min : 101325 101324.15 101320.34
U   max/avg/min : 0.3692285 0.15024281 0
Prg max-min : 4.6539768
 
Iteration Number = 56

DILUPBiCG:  Solving for Ux, Initial residual = 0.021709081, Final residual = 2.0504822e-05, No Iterations 2
DILUPBiCG:  Solving for Uy, Initial residual = 0.019431112, Final residual = 2.5280729e-06, No Iterations 3
DILUPBiCG:  Solving for Uz, Initial residual = 0.012125568, Final residual = 4.7106338e-06, No Iterations 2
DILUPBiCG:  Solving for h, Initial residual = 0.003381214, Final residual = 2.4915113e-06, No Iterations 5
GAMG:  Solving for p_rgh, Initial residual = 0.012178784, Final residual = 6.4563912e-06, No Iterations 4
time step continuity errors : sum local = 8.8982458e-05, global = 2.8453995e-05, cumulative = 0.00024749431
ExecutionTime = 2.09 s  ClockTime = 2 s
Inflow      : 4.8814252e-05 [kg/s]
Outflow     : 4.8837983e-05 [kg/s]
EnergyInflow  : 14.422766 [W]
EnergyOutflow : 14.659691 [W]
rho max/avg/min : 1.2016458 1.0912775 0.88150772
T   max/avg/min : 400.29402 326.96744 293.69043
P   max/avg/min : 101324.91 101316.15 101307.4
Prg max/avg/min : 101325 101324.14 101320.32
U   max/avg/min : 0.38162593 0.15368824 0
Prg max-min : 4.6801456
 
Iteration Number = 57

DILUPBiCG:  Solving for Ux, Initial residual = 0.023435452, Final residual = 2.1855938e-05, No Iterations 2
DILUPBiCG:  Solving for Uy, Initial residual = 0.0210408, Final residual = 2.2023556e-06, No Iterations 3
DILUPBiCG:  Solving for Uz, Initial residual = 0.01282994, Final residual = 5.5748444e-06, No Iterations 2
DILUPBiCG:  Solving for h, Initial residual = 0.0032205465, Final residual = 2.4316642e-06, No Iterations 5
GAMG:  Solving for p_rgh, Initial residual = 0.011625014, Final residual = 3.8595689e-06, No Iterations 4
time step continuity errors : sum local = 5.3248308e-05, global = -1.1816492e-05, cumulative = 0.00023567782
ExecutionTime = 2.12 s  ClockTime = 2 s
Inflow      : 4.938704e-05 [kg/s]
Outflow     : 4.9377185e-05 [kg/s]
EnergyInflow  : 14.592003 [W]
EnergyOutflow : 14.823683 [W]
rho max/avg/min : 1.2016458 1.0906795 0.88016941
T   max/avg/min : 400.90265 327.1999 293.68986
P   max/avg/min : 101324.91 101316.16 101307.4
Prg max/avg/min : 101325 101324.14 101320.3
U   max/avg/min : 0.39392629 0.15704899 0
Prg max-min : 4.6929547
 
Iteration Number = 58

DILUPBiCG:  Solving for Ux, Initial residual = 0.020297181, Final residual = 1.6821186e-05, No Iterations 2
DILUPBiCG:  Solving for Uy, Initial residual = 0.020726921, Final residual = 2.4244056e-06, No Iterations 3
DILUPBiCG:  Solving for Uz, Initial residual = 0.010974377, Final residual = 4.3580492e-06, No Iterations 2
DILUPBiCG:  Solving for h, Initial residual = 0.0030704307, Final residual = 2.2435633e-06, No Iterations 5
GAMG:  Solving for p_rgh, Initial residual = 0.011178294, Final residual = 7.3431022e-06, No Iterations 4
time step continuity errors : sum local = 0.00010094096, global = -1.1991042e-05, cumulative = 0.00022368678
ExecutionTime = 2.16 s  ClockTime = 3 s
Inflow      : 4.9860398e-05 [kg/s]
Outflow     : 4.9850398e-05 [kg/s]
EnergyInflow  : 14.731863 [W]
EnergyOutflow : 14.96813 [W]
rho max/avg/min : 1.2016458 1.0901111 0.87886583
T   max/avg/min : 401.49731 327.42258 293.68934
P   max/avg/min : 101324.91 101316.15 101307.4
Prg max/avg/min : 101325 101324.14 101320.28
U   max/avg/min : 0.40614814 0.16030004 0
Prg max-min : 4.716329
 
Iteration Number = 59

DILUPBiCG:  Solving for Ux, Initial residual = 0.021013825, Final residual = 1.5696848e-05, No Iterations 2
DILUPBiCG:  Solving for Uy, Initial residual = 0.020376616, Final residual = 2.5321764e-06, No Iterations 3
DILUPBiCG:  Solving for Uz, Initial residual = 0.01121939, Final residual = 4.680143e-06, No Iterations 2
DILUPBiCG:  Solving for h, Initial residual = 0.0029312813, Final residual = 2.1752246e-06, No Iterations 5
GAMG:  Solving for p_rgh, Initial residual = 0.010626171, Final residual = 4.228194e-06, No Iterations 4
time step continuity errors : sum local = 5.8169897e-05, global = 1.0515918e-05, cumulative = 0.0002342027
ExecutionTime = 2.19 s  ClockTime = 3 s
Inflow      : 5.0308507e-05 [kg/s]
Outflow     : 5.0317278e-05 [kg/s]
EnergyInflow  : 14.864262 [W]
EnergyOutflow : 15.11066 [W]
rho max/avg/min : 1.2016458 1.0895709 0.87759607
T   max/avg/min : 402.07821 327.63579 293.68881
P   max/avg/min : 101324.91 101316.15 101307.4
Prg max/avg/min : 101325 101324.13 101320.26
U   max/avg/min : 0.41823992 0.16350169 0
Prg max-min : 4.7316888
 
Iteration Number = 60

DILUPBiCG:  Solving for Ux, Initial residual = 0.019366785, Final residual = 1.5020848e-05, No Iterations 2
DILUPBiCG:  Solving for Uy, Initial residual = 0.022095235, Final residual = 1.570613e-06, No Iterations 3
DILUPBiCG:  Solving for Uz, Initial residual = 0.010253493, Final residual = 4.1182491e-06, No Iterations 2
DILUPBiCG:  Solving for h, Initial residual = 0.002799686, Final residual = 2.049421e-06, No Iterations 5
GAMG:  Solving for p_rgh, Initial residual = 0.010182082, Final residual = 1.7238633e-06, No Iterations 4
time step continuity errors : sum local = 2.3675601e-05, global = -2.2546883e-06, cumulative = 0.00023194801
ExecutionTime = 2.23 s  ClockTime = 3 s
Inflow      : 5.0697464e-05 [kg/s]
Outflow     : 5.0695584e-05 [kg/s]
EnergyInflow  : 14.979184 [W]
EnergyOutflow : 15.226941 [W]
rho max/avg/min : 1.2016458 1.0890578 0.87635906
T   max/avg/min : 402.64577 327.83983 293.68831
P   max/avg/min : 101324.91 101316.15 101307.4
Prg max/avg/min : 101325 101324.13 101320.25
U   max/avg/min : 0.430183 0.166597 0
Prg max-min : 4.7503835
 
Iteration Number = 61

DILUPBiCG:  Solving for Ux, Initial residual = 0.018719326, Final residual = 1.36918e-05, No Iterations 2
DILUPBiCG:  Solving for Uy, Initial residual = 0.022169703, Final residual = 1.392281e-06, No Iterations 3
DILUPBiCG:  Solving for Uz, Initial residual = 0.0099026452, Final residual = 4.0622467e-06, No Iterations 2
DILUPBiCG:  Solving for h, Initial residual = 0.0026771721, Final residual = 2.2629319e-06, No Iterations 5
GAMG:  Solving for p_rgh, Initial residual = 0.0096678386, Final residual = 2.272575e-06, No Iterations 4
time step continuity errors : sum local = 3.1199353e-05, global = 5.365536e-06, cumulative = 0.00023731354
ExecutionTime = 2.27 s  ClockTime = 3 s
Inflow      : 5.1064215e-05 [kg/s]
Outflow     : 5.106869e-05 [kg/s]
EnergyInflow  : 15.087545 [W]
EnergyOutflow : 15.34161 [W]
rho max/avg/min : 1.2016458 1.0885708 0.8751549
T   max/avg/min : 403.19978 328.03498 293.68783
P   max/avg/min : 101324.91 101316.15 101307.4
Prg max/avg/min : 101325 101324.12 101320.23
U   max/avg/min : 0.4419783 0.16963738 0
Prg max-min : 4.7678939
 
Iteration Number = 62

DILUPBiCG:  Solving for Ux, Initial residual = 0.018312552, Final residual = 1.4495393e-05, No Iterations 2
DILUPBiCG:  Solving for Uy, Initial residual = 0.021829138, Final residual = 1.4770213e-06, No Iterations 3
DILUPBiCG:  Solving for Uz, Initial residual = 0.0095605664, Final residual = 3.9564271e-06, No Iterations 2
DILUPBiCG:  Solving for h, Initial residual = 0.00256077, Final residual = 2.4027986e-06, No Iterations 5
GAMG:  Solving for p_rgh, Initial residual = 0.0092463335, Final residual = 3.0387422e-06, No Iterations 4
time step continuity errors : sum local = 4.1697107e-05, global = -1.5202418e-06, cumulative = 0.0002357933
ExecutionTime = 2.3 s  ClockTime = 3 s
Inflow      : 5.1405225e-05 [kg/s]
Outflow     : 5.1403957e-05 [kg/s]
EnergyInflow  : 15.188301 [W]
EnergyOutflow : 15.445006 [W]
rho max/avg/min : 1.2016458 1.0881087 0.87398204
T   max/avg/min : 403.74086 328.22158 293.68737
P   max/avg/min : 101324.91 101316.15 101307.4
Prg max/avg/min : 101325 101324.12 101320.21
U   max/avg/min : 0.45361898 0.17260461 0
Prg max-min : 4.7843673
 
Iteration Number = 63

DILUPBiCG:  Solving for Ux, Initial residual = 0.017156952, Final residual = 1.2492849e-05, No Iterations 2
DILUPBiCG:  Solving for Uy, Initial residual = 0.021853559, Final residual = 1.965693e-06, No Iterations 3
DILUPBiCG:  Solving for Uz, Initial residual = 0.0090800205, Final residual = 3.988854e-06, No Iterations 2
DILUPBiCG:  Solving for h, Initial residual = 0.0024508995, Final residual = 2.4117997e-06, No Iterations 5
GAMG:  Solving for p_rgh, Initial residual = 0.0088254626, Final residual = 2.500528e-06, No Iterations 4
time step continuity errors : sum local = 3.426972e-05, global = -5.1820165e-06, cumulative = 0.00023061129
ExecutionTime = 2.33 s  ClockTime = 3 s
Inflow      : 5.1700241e-05 [kg/s]
Outflow     : 5.1695919e-05 [kg/s]
EnergyInflow  : 15.275467 [W]
EnergyOutflow : 15.535503 [W]
rho max/avg/min : 1.2016458 1.0876705 0.87284063
T   max/avg/min : 404.26884 328.39988 293.68694
P   max/avg/min : 101324.91 101316.15 101307.4
Prg max/avg/min : 101325 101324.12 101320.2
U   max/avg/min : 0.46515024 0.17549446 0
Prg max-min : 4.8006175
 
Iteration Number = 64

DILUPBiCG:  Solving for Ux, Initial residual = 0.017067458, Final residual = 1.4272341e-05, No Iterations 2
DILUPBiCG:  Solving for Uy, Initial residual = 0.022135726, Final residual = 2.5722945e-06, No Iterations 3
DILUPBiCG:  Solving for Uz, Initial residual = 0.0087312367, Final residual = 3.977016e-06, No Iterations 2
DILUPBiCG:  Solving for h, Initial residual = 0.0023473051, Final residual = 1.7671109e-06, No Iterations 6
GAMG:  Solving for p_rgh, Initial residual = 0.0084188558, Final residual = 1.8155419e-06, No Iterations 4
time step continuity errors : sum local = 2.4873363e-05, global = -1.3089997e-05, cumulative = 0.00021752129
ExecutionTime = 2.37 s  ClockTime = 3 s
Inflow      : 5.1994043e-05 [kg/s]
Outflow     : 5.1983126e-05 [kg/s]
EnergyInflow  : 15.362274 [W]
EnergyOutflow : 15.624488 [W]
rho max/avg/min : 1.2016458 1.0872561 0.87172938
T   max/avg/min : 404.78419 328.56989 293.68654
P   max/avg/min : 101324.91 101316.15 101307.4
Prg max/avg/min : 101325 101324.11 101320.18
U   max/avg/min : 0.47650222 0.17832692 0
Prg max-min : 4.8173153
 
Iteration Number = 65

DILUPBiCG:  Solving for Ux, Initial residual = 0.015765418, Final residual = 1.1415689e-05, No Iterations 2
DILUPBiCG:  Solving for Uy, Initial residual = 0.022949626, Final residual = 1.3659877e-06, No Iterations 3
DILUPBiCG:  Solving for Uz, Initial residual = 0.0084693717, Final residual = 4.4190033e-06, No Iterations 2
DILUPBiCG:  Solving for h, Initial residual = 0.0022488025, Final residual = 2.2468135e-07, No Iterations 6
GAMG:  Solving for p_rgh, Initial residual = 0.008048087, Final residual = 3.368612e-06, No Iterations 4
time step continuity errors : sum local = 4.6104055e-05, global = 1.6028151e-06, cumulative = 0.0002191241
ExecutionTime = 2.41 s  ClockTime = 3 s
Inflow      : 5.2228278e-05 [kg/s]
Outflow     : 5.2229615e-05 [kg/s]
EnergyInflow  : 15.431482 [W]
EnergyOutflow : 15.701332 [W]
rho max/avg/min : 1.2016458 1.0868632 0.87064808
T   max/avg/min : 405.28691 328.73228 293.68619
P   max/avg/min : 101324.91 101316.16 101307.4
Prg max/avg/min : 101325 101324.11 101320.16
U   max/avg/min : 0.48767194 0.18108804 0
Prg max-min : 4.8317778
 
Iteration Number = 66

DILUPBiCG:  Solving for Ux, Initial residual = 0.015952814, Final residual = 1.3137491e-05, No Iterations 2
DILUPBiCG:  Solving for Uy, Initial residual = 0.021511049, Final residual = 4.7661232e-08, No Iterations 4
DILUPBiCG:  Solving for Uz, Initial residual = 0.0080321588, Final residual = 5.1306987e-06, No Iterations 2
DILUPBiCG:  Solving for h, Initial residual = 0.0021555624, Final residual = 2.2376471e-07, No Iterations 6
GAMG:  Solving for p_rgh, Initial residual = 0.0077193675, Final residual = 1.5190151e-06, No Iterations 4
time step continuity errors : sum local = 2.0781457e-05, global = -3.3084896e-06, cumulative = 0.00021581561
ExecutionTime = 2.44 s  ClockTime = 3 s
Inflow      : 5.2458299e-05 [kg/s]
Outflow     : 5.245554e-05 [kg/s]
EnergyInflow  : 15.499444 [W]
EnergyOutflow : 15.771993 [W]
rho max/avg/min : 1.2016458 1.0864913 0.86959601
T   max/avg/min : 405.77724 328.88722 293.68599
P   max/avg/min : 101324.91 101316.16 101307.4
Prg max/avg/min : 101325 101324.11 101320.15
U   max/avg/min : 0.49865444 0.18378676 0
Prg max-min : 4.8480387
 
Iteration Number = 67

DILUPBiCG:  Solving for Ux, Initial residual = 0.014988463, Final residual = 1.1361553e-05, No Iterations 2
DILUPBiCG:  Solving for Uy, Initial residual = 0.021518581, Final residual = 3.6736377e-06, No Iterations 3
DILUPBiCG:  Solving for Uz, Initial residual = 0.0078544407, Final residual = 6.4107396e-06, No Iterations 2
DILUPBiCG:  Solving for h, Initial residual = 0.0020668391, Final residual = 2.673674e-07, No Iterations 6
GAMG:  Solving for p_rgh, Initial residual = 0.00738014, Final residual = 1.2078418e-06, No Iterations 4
time step continuity errors : sum local = 1.6513705e-05, global = -7.3440542e-06, cumulative = 0.00020847156
ExecutionTime = 2.48 s  ClockTime = 3 s
Inflow      : 5.2682163e-05 [kg/s]
Outflow     : 5.2676038e-05 [kg/s]
EnergyInflow  : 15.565588 [W]
EnergyOutflow : 15.840936 [W]
rho max/avg/min : 1.2016458 1.0861395 0.86857279
T   max/avg/min : 406.25526 329.03497 293.68587
P   max/avg/min : 101324.91 101316.16 101307.4
Prg max/avg/min : 101325 101324.1 101320.13
U   max/avg/min : 0.50944555 0.18643721 0
Prg max-min : 4.8625007
 
Iteration Number = 68

DILUPBiCG:  Solving for Ux, Initial residual = 0.014815603, Final residual = 1.2387597e-05, No Iterations 2
DILUPBiCG:  Solving for Uy, Initial residual = 0.020462826, Final residual = 1.2579323e-05, No Iterations 3
DILUPBiCG:  Solving for Uz, Initial residual = 0.0075852301, Final residual = 5.4827685e-06, No Iterations 2
DILUPBiCG:  Solving for h, Initial residual = 0.0019818371, Final residual = 3.5778575e-07, No Iterations 6
GAMG:  Solving for p_rgh, Initial residual = 0.0070900073, Final residual = 1.7867304e-06, No Iterations 4
time step continuity errors : sum local = 2.4405742e-05, global = -1.1797058e-07, cumulative = 0.00020835359
ExecutionTime = 2.52 s  ClockTime = 3 s
Inflow      : 5.2851424e-05 [kg/s]
Outflow     : 5.2851326e-05 [kg/s]
EnergyInflow  : 15.615598 [W]
EnergyOutflow : 15.896409 [W]
rho max/avg/min : 1.2016458 1.085807 0.86757744
T   max/avg/min : 406.72135 329.17576 293.68579
P   max/avg/min : 101324.91 101316.16 101307.4
Prg max/avg/min : 101325 101324.1 101320.12
U   max/avg/min : 0.52004382 0.18901183 0
Prg max-min : 4.8764346
 
Iteration Number = 69

DILUPBiCG:  Solving for Ux, Initial residual = 0.013973521, Final residual = 1.0534647e-05, No Iterations 2
DILUPBiCG:  Solving for Uy, Initial residual = 0.019632289, Final residual = 1.3175482e-06, No Iterations 3
DILUPBiCG:  Solving for Uz, Initial residual = 0.0071660275, Final residual = 7.3528141e-08, No Iterations 3
DILUPBiCG:  Solving for h, Initial residual = 0.001901323, Final residual = 2.4968046e-07, No Iterations 6
GAMG:  Solving for p_rgh, Initial residual = 0.006801841, Final residual = 2.8766023e-06, No Iterations 4
time step continuity errors : sum local = 3.9253916e-05, global = 1.507813e-06, cumulative = 0.0002098614
ExecutionTime = 2.56 s  ClockTime = 3 s
Inflow      : 5.30361e-05 [kg/s]
Outflow     : 5.3037357e-05 [kg/s]
EnergyInflow  : 15.670163 [W]
EnergyOutflow : 15.954949 [W]
rho max/avg/min : 1.2016458 1.0854928 0.86660973
T   max/avg/min : 407.17553 329.30986 293.68574
P   max/avg/min : 101324.91 101316.15 101307.4
Prg max/avg/min : 101325 101324.1 101320.1
U   max/avg/min : 0.53050994 0.19154476 0
Prg max-min : 4.8918826
 
Iteration Number = 70

DILUPBiCG:  Solving for Ux, Initial residual = 0.013825071, Final residual = 1.1401796e-05, No Iterations 2
DILUPBiCG:  Solving for Uy, Initial residual = 0.020548753, Final residual = 1.7694026e-06, No Iterations 3
DILUPBiCG:  Solving for Uz, Initial residual = 0.007208651, Final residual = 6.2982585e-06, No Iterations 2
DILUPBiCG:  Solving for h, Initial residual = 0.0018240227, Final residual = 4.0822899e-07, No Iterations 6
GAMG:  Solving for p_rgh, Initial residual = 0.0065213778, Final residual = 2.7128624e-06, No Iterations 4
time step continuity errors : sum local = 3.6997753e-05, global = -1.2313516e-05, cumulative = 0.00019754789
ExecutionTime = 2.6 s  ClockTime = 3 s
Inflow      : 5.3189629e-05 [kg/s]
Outflow     : 5.317936e-05 [kg/s]
EnergyInflow  : 15.715525 [W]
EnergyOutflow : 16.000378 [W]
rho max/avg/min : 1.2016458 1.0851962 0.86566953
T   max/avg/min : 407.61775 329.4375 293.68571
P   max/avg/min : 101324.91 101316.16 101307.41
Prg max/avg/min : 101325 101324.09 101320.09
U   max/avg/min : 0.54125433 0.19401282 0
Prg max-min : 4.9039831
 
Iteration Number = 71

DILUPBiCG:  Solving for Ux, Initial residual = 0.013232122, Final residual = 1.003089e-05, No Iterations 2
DILUPBiCG:  Solving for Uy, Initial residual = 0.019558712, Final residual = 3.184923e-06, No Iterations 3
DILUPBiCG:  Solving for Uz, Initial residual = 0.0066454028, Final residual = 6.4018306e-08, No Iterations 3
DILUPBiCG:  Solving for h, Initial residual = 0.0017507835, Final residual = 3.1767297e-07, No Iterations 6
GAMG:  Solving for p_rgh, Initial residual = 0.0062999454, Final residual = 5.8257479e-06, No Iterations 3
[...]
Prg max-min : 5.1222901
 
Iteration Number = 1983

DILUPBiCG:  Solving for Ux, Initial residual = 4.1974738e-05, Final residual = 8.651435e-10, No Iterations 3
DILUPBiCG:  Solving for Uy, Initial residual = 0.018920817, Final residual = 1.5182699e-05, No Iterations 2
DILUPBiCG:  Solving for Uz, Initial residual = 9.9850145e-05, Final residual = 1.5379405e-09, No Iterations 3
DILUPBiCG:  Solving for h, Initial residual = 1.3773509e-06, Final residual = 7.0823339e-10, No Iterations 6
GAMG:  Solving for p_rgh, Initial residual = 1.0996669e-05, Final residual = 4.6750464e-09, No Iterations 4
time step continuity errors : sum local = 3.991401e-08, global = 1.1416e-08, cumulative = 0.0001442983
ExecutionTime = 77.88 s  ClockTime = 78 s
Inflow      : 0.00014165392 [kg/s]
Outflow     : 0.00014165393 [kg/s]
EnergyInflow  : 41.85338 [W]
EnergyOutflow : 42.232507 [W]
rho max/avg/min : 1.2016456 1.0919186 0.85133051
T   max/avg/min : 414.48318 327.79329 293.68537
P   max/avg/min : 101324.88 101316.13 101307.38
Prg max/avg/min : 101324.98 101324.11 101319.85
U   max/avg/min : 1.2100721 0.40236464 0
Prg max-min : 5.1222869
 
Iteration Number = 1984

DILUPBiCG:  Solving for Ux, Initial residual = 4.6158659e-05, Final residual = 9.166871e-10, No Iterations 3
DILUPBiCG:  Solving for Uy, Initial residual = 0.01900138, Final residual = 1.3122956e-05, No Iterations 2
DILUPBiCG:  Solving for Uz, Initial residual = 9.9659123e-05, Final residual = 1.5344238e-09, No Iterations 3
DILUPBiCG:  Solving for h, Initial residual = 1.376747e-06, Final residual = 3.5800487e-10, No Iterations 6
GAMG:  Solving for p_rgh, Initial residual = 1.098396e-05, Final residual = 2.9077601e-09, No Iterations 5
time step continuity errors : sum local = 2.7647852e-08, global = -4.4595436e-09, cumulative = 0.00014429384
ExecutionTime = 77.93 s  ClockTime = 78 s
Inflow      : 0.00014168824 [kg/s]
Outflow     : 0.00014168824 [kg/s]
EnergyInflow  : 41.863519 [W]
EnergyOutflow : 42.242643 [W]
rho max/avg/min : 1.2016456 1.0919194 0.85133071
T   max/avg/min : 414.48308 327.79304 293.68537
P   max/avg/min : 101324.88 101316.13 101307.38
Prg max/avg/min : 101324.98 101324.11 101319.85
U   max/avg/min : 1.2100783 0.40239169 0
Prg max-min : 5.1222837
 
Iteration Number = 1985

DILUPBiCG:  Solving for Ux, Initial residual = 4.2492655e-05, Final residual = 8.6994074e-10, No Iterations 3
DILUPBiCG:  Solving for Uy, Initial residual = 0.018213532, Final residual = 2.7617963e-06, No Iterations 3
DILUPBiCG:  Solving for Uz, Initial residual = 9.9823669e-05, Final residual = 1.5370892e-09, No Iterations 3
DILUPBiCG:  Solving for h, Initial residual = 1.3761495e-06, Final residual = 6.0651743e-10, No Iterations 6
GAMG:  Solving for p_rgh, Initial residual = 1.0994525e-05, Final residual = 4.6055251e-09, No Iterations 4
time step continuity errors : sum local = 3.9216284e-08, global = 6.6060813e-09, cumulative = 0.00014430044
ExecutionTime = 77.98 s  ClockTime = 79 s
Inflow      : 0.00014172252 [kg/s]
Outflow     : 0.00014172253 [kg/s]
EnergyInflow  : 41.873648 [W]
EnergyOutflow : 42.252776 [W]
rho max/avg/min : 1.2016456 1.0919202 0.85133092
T   max/avg/min : 414.48297 327.7928 293.68537
P   max/avg/min : 101324.88 101316.13 101307.38
Prg max/avg/min : 101324.98 101324.11 101319.85
U   max/avg/min : 1.2100845 0.40241873 0
Prg max-min : 5.1222805
 
Iteration Number = 1986

DILUPBiCG:  Solving for Ux, Initial residual = 4.5613508e-05, Final residual = 9.1024111e-10, No Iterations 3
DILUPBiCG:  Solving for Uy, Initial residual = 0.018399931, Final residual = 3.0373907e-06, No Iterations 3
DILUPBiCG:  Solving for Uz, Initial residual = 9.961271e-05, Final residual = 1.5331518e-09, No Iterations 3
DILUPBiCG:  Solving for h, Initial residual = 1.3755716e-06, Final residual = 4.1153908e-10, No Iterations 6
GAMG:  Solving for p_rgh, Initial residual = 1.0984283e-05, Final residual = 2.8841883e-09, No Iterations 5
time step continuity errors : sum local = 2.6872929e-08, global = -2.6101382e-10, cumulative = 0.00014430018
ExecutionTime = 78.02 s  ClockTime = 79 s
Inflow      : 0.00014175681 [kg/s]
Outflow     : 0.00014175681 [kg/s]
EnergyInflow  : 41.883779 [W]
EnergyOutflow : 42.262906 [W]
rho max/avg/min : 1.2016456 1.0919209 0.85133113
T   max/avg/min : 414.48287 327.79255 293.68537
P   max/avg/min : 101324.88 101316.13 101307.38
Prg max/avg/min : 101324.98 101324.11 101319.85
U   max/avg/min : 1.2100908 0.40244576 0
Prg max-min : 5.1222773
 
Iteration Number = 1987

DILUPBiCG:  Solving for Ux, Initial residual = 4.2950423e-05, Final residual = 8.6908069e-10, No Iterations 3
DILUPBiCG:  Solving for Uy, Initial residual = 0.018761367, Final residual = 1.5156793e-05, No Iterations 2
DILUPBiCG:  Solving for Uz, Initial residual = 9.9794678e-05, Final residual = 1.5362065e-09, No Iterations 3
DILUPBiCG:  Solving for h, Initial residual = 1.3749828e-06, Final residual = 3.4742285e-10, No Iterations 6
GAMG:  Solving for p_rgh, Initial residual = 1.0991952e-05, Final residual = 5.2769736e-09, No Iterations 4
time step continuity errors : sum local = 4.4333869e-08, global = 1.2775919e-08, cumulative = 0.00014431296
ExecutionTime = 78.06 s  ClockTime = 79 s
Inflow      : 0.00014179107 [kg/s]
Outflow     : 0.00014179108 [kg/s]
EnergyInflow  : 41.893901 [W]
EnergyOutflow : 42.273032 [W]
rho max/avg/min : 1.2016456 1.0919217 0.85133134
T   max/avg/min : 414.48277 327.7923 293.68537
P   max/avg/min : 101324.88 101316.13 101307.38
Prg max/avg/min : 101324.98 101324.11 101319.85
U   max/avg/min : 1.210097 0.40247278 0
Prg max-min : 5.1222741
 
Iteration Number = 1988

DILUPBiCG:  Solving for Ux, Initial residual = 4.5174275e-05, Final residual = 9.084517e-10, No Iterations 3
DILUPBiCG:  Solving for Uy, Initial residual = 0.017014166, Final residual = 5.0706237e-08, No Iterations 4
DILUPBiCG:  Solving for Uz, Initial residual = 9.9590855e-05, Final residual = 1.5323963e-09, No Iterations 3
DILUPBiCG:  Solving for h, Initial residual = 1.3743828e-06, Final residual = 4.4296842e-10, No Iterations 6
GAMG:  Solving for p_rgh, Initial residual = 1.0977962e-05, Final residual = 1.0715361e-08, No Iterations 4
time step continuity errors : sum local = 8.3953294e-08, global = 7.3442417e-09, cumulative = 0.0001443203
ExecutionTime = 78.09 s  ClockTime = 79 s
Inflow      : 0.00014182533 [kg/s]
Outflow     : 0.00014182534 [kg/s]
EnergyInflow  : 41.904025 [W]
EnergyOutflow : 42.283156 [W]
rho max/avg/min : 1.2016456 1.0919225 0.85133155
T   max/avg/min : 414.48267 327.79206 293.68537
P   max/avg/min : 101324.88 101316.13 101307.38
Prg max/avg/min : 101324.98 101324.11 101319.85
U   max/avg/min : 1.2101032 0.4024998 0
Prg max-min : 5.122271
 
Iteration Number = 1989

DILUPBiCG:  Solving for Ux, Initial residual = 4.1977623e-05, Final residual = 8.6492683e-10, No Iterations 3
DILUPBiCG:  Solving for Uy, Initial residual = 0.017922792, Final residual = 7.4279371e-08, No Iterations 4
DILUPBiCG:  Solving for Uz, Initial residual = 9.9764118e-05, Final residual = 1.5352282e-09, No Iterations 3
DILUPBiCG:  Solving for h, Initial residual = 1.3739843e-06, Final residual = 4.4456525e-10, No Iterations 6
GAMG:  Solving for p_rgh, Initial residual = 1.099e-05, Final residual = 5.5610072e-09, No Iterations 4
time step continuity errors : sum local = 4.6089355e-08, global = 1.4532985e-08, cumulative = 0.00014433484
ExecutionTime = 78.13 s  ClockTime = 79 s
Inflow      : 0.00014185958 [kg/s]
Outflow     : 0.00014185959 [kg/s]
EnergyInflow  : 41.914143 [W]
EnergyOutflow : 42.293277 [W]
rho max/avg/min : 1.2016456 1.0919232 0.85133175
T   max/avg/min : 414.48257 327.79181 293.68537
P   max/avg/min : 101324.88 101316.13 101307.38
Prg max/avg/min : 101324.98 101324.11 101319.85
U   max/avg/min : 1.2101094 0.40252681 0
Prg max-min : 5.1222677
 
Iteration Number = 1990

DILUPBiCG:  Solving for Ux, Initial residual = 4.7129272e-05, Final residual = 9.2855658e-10, No Iterations 3
DILUPBiCG:  Solving for Uy, Initial residual = 0.018226026, Final residual = 7.8632535e-07, No Iterations 3
DILUPBiCG:  Solving for Uz, Initial residual = 9.9554208e-05, Final residual = 1.5314044e-09, No Iterations 3
DILUPBiCG:  Solving for h, Initial residual = 1.3731587e-06, Final residual = 3.8468535e-10, No Iterations 6
GAMG:  Solving for p_rgh, Initial residual = 1.0970028e-05, Final residual = 2.9972821e-09, No Iterations 5
time step continuity errors : sum local = 2.8234836e-08, global = -3.2397929e-09, cumulative = 0.0001443316
ExecutionTime = 78.17 s  ClockTime = 79 s
Inflow      : 0.00014189383 [kg/s]
Outflow     : 0.00014189383 [kg/s]
EnergyInflow  : 41.924263 [W]
EnergyOutflow : 42.303394 [W]
rho max/avg/min : 1.2016456 1.091924 0.85133196
T   max/avg/min : 414.48247 327.79156 293.68537
P   max/avg/min : 101324.88 101316.13 101307.38
Prg max/avg/min : 101324.98 101324.11 101319.85
U   max/avg/min : 1.2101156 0.40255381 0
Prg max-min : 5.1222646
 
Iteration Number = 1991

DILUPBiCG:  Solving for Ux, Initial residual = 4.1455366e-05, Final residual = 8.6562862e-10, No Iterations 3
DILUPBiCG:  Solving for Uy, Initial residual = 0.017149758, Final residual = 3.5743124e-08, No Iterations 4
DILUPBiCG:  Solving for Uz, Initial residual = 9.9725571e-05, Final residual = 1.5339553e-09, No Iterations 3
DILUPBiCG:  Solving for h, Initial residual = 1.3726095e-06, Final residual = 3.9111156e-10, No Iterations 6
GAMG:  Solving for p_rgh, Initial residual = 1.0980488e-05, Final residual = 4.5375766e-09, No Iterations 4
time step continuity errors : sum local = 3.8742339e-08, global = 9.8474346e-09, cumulative = 0.00014434144
ExecutionTime = 78.2 s  ClockTime = 79 s
Inflow      : 0.00014192805 [kg/s]
Outflow     : 0.00014192805 [kg/s]
EnergyInflow  : 41.934373 [W]
EnergyOutflow : 42.313508 [W]
rho max/avg/min : 1.2016456 1.0919248 0.85133217
T   max/avg/min : 414.48237 327.79132 293.68537
P   max/avg/min : 101324.88 101316.13 101307.38
Prg max/avg/min : 101324.98 101324.11 101319.85
U   max/avg/min : 1.2101218 0.4025808 0
Prg max-min : 5.1222614
 
Iteration Number = 1992

DILUPBiCG:  Solving for Ux, Initial residual = 4.6421537e-05, Final residual = 9.1139533e-10, No Iterations 3
DILUPBiCG:  Solving for Uy, Initial residual = 0.018166442, Final residual = 1.7212104e-05, No Iterations 2
DILUPBiCG:  Solving for Uz, Initial residual = 9.9522895e-05, Final residual = 1.5304409e-09, No Iterations 3
DILUPBiCG:  Solving for h, Initial residual = 1.3719736e-06, Final residual = 3.2243151e-10, No Iterations 6
GAMG:  Solving for p_rgh, Initial residual = 1.0960965e-05, Final residual = 2.8853895e-09, No Iterations 5
time step continuity errors : sum local = 2.7481902e-08, global = -7.3510006e-10, cumulative = 0.00014434071
ExecutionTime = 78.25 s  ClockTime = 79 s
Inflow      : 0.00014196227 [kg/s]
Outflow     : 0.00014196227 [kg/s]
EnergyInflow  : 41.944485 [W]
EnergyOutflow : 42.323619 [W]
rho max/avg/min : 1.2016456 1.0919255 0.85133238
T   max/avg/min : 414.48227 327.79107 293.68537
P   max/avg/min : 101324.88 101316.13 101307.38
Prg max/avg/min : 101324.98 101324.11 101319.85
U   max/avg/min : 1.2101281 0.40260779 0
Prg max-min : 5.1222582
 
Iteration Number = 1993

DILUPBiCG:  Solving for Ux, Initial residual = 4.2052347e-05, Final residual = 8.7028651e-10, No Iterations 3
DILUPBiCG:  Solving for Uy, Initial residual = 0.018925476, Final residual = 4.3175567e-06, No Iterations 3
DILUPBiCG:  Solving for Uz, Initial residual = 9.9697842e-05, Final residual = 1.5330712e-09, No Iterations 3
DILUPBiCG:  Solving for h, Initial residual = 1.3714204e-06, Final residual = 5.1452309e-10, No Iterations 6
GAMG:  Solving for p_rgh, Initial residual = 1.097651e-05, Final residual = 4.7750137e-09, No Iterations 4
time step continuity errors : sum local = 4.0380513e-08, global = 1.0868511e-08, cumulative = 0.00014435158
ExecutionTime = 78.28 s  ClockTime = 79 s
Inflow      : 0.00014199647 [kg/s]
Outflow     : 0.00014199648 [kg/s]
EnergyInflow  : 41.95459 [W]
EnergyOutflow : 42.333727 [W]
rho max/avg/min : 1.2016456 1.0919263 0.85133258
T   max/avg/min : 414.48216 327.79082 293.68537
P   max/avg/min : 101324.88 101316.13 101307.38
Prg max/avg/min : 101324.98 101324.11 101319.85
U   max/avg/min : 1.2101343 0.40263477 0
Prg max-min : 5.122255
 
Iteration Number = 1994

DILUPBiCG:  Solving for Ux, Initial residual = 4.5798962e-05, Final residual = 9.1956236e-10, No Iterations 3
DILUPBiCG:  Solving for Uy, Initial residual = 0.016926905, Final residual = 1.2070643e-05, No Iterations 2
DILUPBiCG:  Solving for Uz, Initial residual = 9.948919e-05, Final residual = 1.5294803e-09, No Iterations 3
DILUPBiCG:  Solving for h, Initial residual = 1.3707975e-06, Final residual = 3.2849781e-10, No Iterations 6
GAMG:  Solving for p_rgh, Initial residual = 1.0958563e-05, Final residual = 2.8360221e-09, No Iterations 5
time step continuity errors : sum local = 2.7252509e-08, global = 2.2328241e-10, cumulative = 0.0001443518
ExecutionTime = 78.33 s  ClockTime = 79 s
Inflow      : 0.00014203068 [kg/s]
Outflow     : 0.00014203068 [kg/s]
EnergyInflow  : 41.964696 [W]
EnergyOutflow : 42.343832 [W]
rho max/avg/min : 1.2016456 1.0919271 0.85133279
T   max/avg/min : 414.48206 327.79058 293.68537
P   max/avg/min : 101324.88 101316.13 101307.38
Prg max/avg/min : 101324.98 101324.11 101319.85
U   max/avg/min : 1.2101405 0.40266174 0
Prg max-min : 5.1222518
 
Iteration Number = 1995

DILUPBiCG:  Solving for Ux, Initial residual = 4.2525706e-05, Final residual = 8.7473773e-10, No Iterations 3
DILUPBiCG:  Solving for Uy, Initial residual = 0.016444374, Final residual = 1.316751e-05, No Iterations 2
DILUPBiCG:  Solving for Uz, Initial residual = 9.9664278e-05, Final residual = 1.5322839e-09, No Iterations 3
DILUPBiCG:  Solving for h, Initial residual = 1.3702239e-06, Final residual = 2.8034503e-10, No Iterations 7
GAMG:  Solving for p_rgh, Initial residual = 1.0974024e-05, Final residual = 4.8588672e-09, No Iterations 4
time step continuity errors : sum local = 4.2039581e-08, global = 1.2326471e-08, cumulative = 0.00014436413
ExecutionTime = 78.36 s  ClockTime = 79 s
Inflow      : 0.00014206485 [kg/s]
Outflow     : 0.00014206486 [kg/s]
EnergyInflow  : 41.974794 [W]
EnergyOutflow : 42.353934 [W]
rho max/avg/min : 1.2016456 1.0919278 0.851333
T   max/avg/min : 414.48196 327.79033 293.68537
P   max/avg/min : 101324.88 101316.13 101307.38
Prg max/avg/min : 101324.98 101324.11 101319.85
U   max/avg/min : 1.2101467 0.40268871 0
Prg max-min : 5.1222486
 
Iteration Number = 1996

DILUPBiCG:  Solving for Ux, Initial residual = 4.5331444e-05, Final residual = 9.0505231e-10, No Iterations 3
DILUPBiCG:  Solving for Uy, Initial residual = 0.016629704, Final residual = 1.4472203e-05, No Iterations 2
DILUPBiCG:  Solving for Uz, Initial residual = 9.9465922e-05, Final residual = 1.5285003e-09, No Iterations 3
DILUPBiCG:  Solving for h, Initial residual = 1.3696202e-06, Final residual = 3.3283862e-10, No Iterations 6
GAMG:  Solving for p_rgh, Initial residual = 1.0955502e-05, Final residual = 2.7814701e-09, No Iterations 5
time step continuity errors : sum local = 2.6449104e-08, global = -2.4899881e-09, cumulative = 0.00014436164
ExecutionTime = 78.4 s  ClockTime = 79 s
Inflow      : 0.00014209904 [kg/s]
Outflow     : 0.00014209904 [kg/s]
EnergyInflow  : 41.984895 [W]
EnergyOutflow : 42.364032 [W]
rho max/avg/min : 1.2016456 1.0919286 0.85133321
T   max/avg/min : 414.48186 327.79009 293.68537
P   max/avg/min : 101324.88 101316.13 101307.38
Prg max/avg/min : 101324.98 101324.11 101319.85
U   max/avg/min : 1.2101529 0.40271567 0
Prg max-min : 5.1222455
 
Iteration Number = 1997

DILUPBiCG:  Solving for Ux, Initial residual = 4.2852054e-05, Final residual = 8.8014273e-10, No Iterations 3
DILUPBiCG:  Solving for Uy, Initial residual = 0.017514273, Final residual = 1.2659926e-05, No Iterations 2
DILUPBiCG:  Solving for Uz, Initial residual = 9.9629104e-05, Final residual = 1.5311325e-09, No Iterations 3
DILUPBiCG:  Solving for h, Initial residual = 1.3690551e-06, Final residual = 4.5049344e-10, No Iterations 6
GAMG:  Solving for p_rgh, Initial residual = 1.0964859e-05, Final residual = 4.882414e-09, No Iterations 4
time step continuity errors : sum local = 3.9933693e-08, global = 1.0402796e-08, cumulative = 0.00014437204
ExecutionTime = 78.43 s  ClockTime = 79 s
Inflow      : 0.00014213319 [kg/s]
Outflow     : 0.0001421332 [kg/s]
EnergyInflow  : 41.994986 [W]
EnergyOutflow : 42.374128 [W]
rho max/avg/min : 1.2016456 1.0919294 0.85133341
T   max/avg/min : 414.48176 327.78984 293.68537
P   max/avg/min : 101324.88 101316.13 101307.38
Prg max/avg/min : 101324.98 101324.11 101319.85
U   max/avg/min : 1.2101591 0.40274262 0
Prg max-min : 5.1222422
 
Iteration Number = 1998

DILUPBiCG:  Solving for Ux, Initial residual = 4.501227e-05, Final residual = 9.0729186e-10, No Iterations 3
DILUPBiCG:  Solving for Uy, Initial residual = 0.016758133, Final residual = 1.1811016e-06, No Iterations 3
DILUPBiCG:  Solving for Uz, Initial residual = 9.9425336e-05, Final residual = 1.5274593e-09, No Iterations 3
DILUPBiCG:  Solving for h, Initial residual = 1.3684258e-06, Final residual = 3.1590472e-10, No Iterations 6
GAMG:  Solving for p_rgh, Initial residual = 1.0954442e-05, Final residual = 9.8338127e-09, No Iterations 4
time step continuity errors : sum local = 7.7262129e-08, global = 1.1370308e-08, cumulative = 0.00014438341
ExecutionTime = 78.47 s  ClockTime = 79 s
Inflow      : 0.00014216735 [kg/s]
Outflow     : 0.00014216736 [kg/s]
EnergyInflow  : 42.005077 [W]
EnergyOutflow : 42.38422 [W]
rho max/avg/min : 1.2016456 1.0919301 0.85133362
T   max/avg/min : 414.48166 327.78959 293.68537
P   max/avg/min : 101324.88 101316.13 101307.38
Prg max/avg/min : 101324.98 101324.11 101319.85
U   max/avg/min : 1.2101653 0.40276956 0
Prg max-min : 5.1222391
 
Iteration Number = 1999

DILUPBiCG:  Solving for Ux, Initial residual = 4.199022e-05, Final residual = 8.6702609e-10, No Iterations 3
DILUPBiCG:  Solving for Uy, Initial residual = 0.017182892, Final residual = 2.4869553e-06, No Iterations 3
DILUPBiCG:  Solving for Uz, Initial residual = 9.9602551e-05, Final residual = 1.530393e-09, No Iterations 3
DILUPBiCG:  Solving for h, Initial residual = 1.3680273e-06, Final residual = 4.862325e-10, No Iterations 6
GAMG:  Solving for p_rgh, Initial residual = 1.0961884e-05, Final residual = 5.6113869e-09, No Iterations 4
time step continuity errors : sum local = 4.675327e-08, global = 1.4424796e-08, cumulative = 0.00014439784
ExecutionTime = 78.52 s  ClockTime = 79 s
Inflow      : 0.00014220149 [kg/s]
Outflow     : 0.0001422015 [kg/s]
EnergyInflow  : 42.015164 [W]
EnergyOutflow : 42.39431 [W]
rho max/avg/min : 1.2016456 1.0919309 0.85133383
T   max/avg/min : 414.48156 327.78935 293.68537
P   max/avg/min : 101324.88 101316.13 101307.38
Prg max/avg/min : 101324.98 101324.11 101319.85
U   max/avg/min : 1.2101715 0.4027965 0
Prg max-min : 5.1222359
 
Iteration Number = 2000

DILUPBiCG:  Solving for Ux, Initial residual = 4.6669155e-05, Final residual = 9.3948786e-10, No Iterations 3
DILUPBiCG:  Solving for Uy, Initial residual = 0.017983954, Final residual = 2.1340666e-06, No Iterations 3
DILUPBiCG:  Solving for Uz, Initial residual = 9.9412297e-05, Final residual = 1.5268577e-09, No Iterations 3
DILUPBiCG:  Solving for h, Initial residual = 1.3672468e-06, Final residual = 3.27377e-10, No Iterations 6
GAMG:  Solving for p_rgh, Initial residual = 1.0946647e-05, Final residual = 9.8188587e-09, No Iterations 4
time step continuity errors : sum local = 7.7040557e-08, global = -9.6761857e-09, cumulative = 0.00014438816
ExecutionTime = 78.62 s  ClockTime = 79 s
Inflow      : 0.00014223564 [kg/s]
Outflow     : 0.00014223563 [kg/s]
EnergyInflow  : 42.025255 [W]
EnergyOutflow : 42.404395 [W]
rho max/avg/min : 1.2016456 1.0919317 0.85133404
T   max/avg/min : 414.48146 327.7891 293.68537
P   max/avg/min : 101324.88 101316.13 101307.38
Prg max/avg/min : 101324.98 101324.11 101319.85
U   max/avg/min : 1.2101777 0.40282343 0
Prg max-min : 5.1222328
 
End

