/*---------------------------------------------------------------------------*\
| =========                 |                                                 |
| \\      /  F ield         | OpenFOAM: The Open Source CFD Toolbox           |
|  \\    /   O peration     | Version:  4.0                                   |
|   \\  /    A nd           | Web:      www.OpenFOAM.org                      |
|    \\/     M anipulation  |                                                 |
\*---------------------------------------------------------------------------*/
Build  : 4.0-665f1db4c1f1
Exec   : pupoBuoyantSimpleFoam
Date   : Aug 23 2016
Time   : 22:24:29
Host   : "SC500"
PID    : 2401
Case   : /home/pedro/Documents/ThesisProject/OpenFoam/validation1rod/ViewFactor
nProcs : 1
sigFpe : Enabling floating point exception trapping (FOAM_SIGFPE).
fileModificationChecking : Monitoring run-time modified files using timeStampMaster
allowSystemOperations : Allowing user-supplied system call operations

// * * * * * * * * * * * * * * * * * * * * * * * * * * * * * * * * * * * * * //
Create time

Create mesh for time = 0


SIMPLE: convergence criteria
    field p_rgh	 tolerance 1e-06
    field Uz	 tolerance 1e-06
    field h	 tolerance 1e-06

Reading thermophysical properties

Selecting thermodynamics package 
{
    type            heRhoThermo;
    mixture         pureMixture;
    transport       sutherland;
    thermo          hConst;
    equationOfState perfectGas;
    specie          specie;
    energy          sensibleEnthalpy;
}


Reading g

Reading hRef
Calculating field g.h

Selecting turbulence model type laminar
No MRF models present

Selecting radiationModel viewFactor
Selecting absorptionEmissionModel constantAbsorptionEmission
Selecting scatterModel none
 
rho max/avg/min : 1.2016452 1.2015414 1.2014377
T   max/avg/min : 293.7 293.7 293.7
P   max/avg/min : 101324.91 101316.16 101307.41
Prg max/avg/min : 101325 101325 101325
U   max/avg/min : 0 0 0
 
No finite volume options present


Starting Iteration loop

Iteration Number = 1

DILUPBiCG:  Solving for Ux, Initial residual = 1, Final residual = 4.130809e-06, No Iterations 3
DILUPBiCG:  Solving for Uz, Initial residual = 1, Final residual = 7.1139094e-06, No Iterations 3
DILUPBiCG:  Solving for h, Initial residual = 1, Final residual = 7.5427965e-05, No Iterations 3
DICPCG:  Solving for p_rgh, Initial residual = 0.86423918, Final residual = 7.8638378e-05, No Iterations 83
time step continuity errors : sum local = 2.9357522e-05, global = -6.3329389e-07, cumulative = -6.3329389e-07
ExecutionTime = 1.95 s  ClockTime = 2 s
Inflow      : -1.8093234e-05 [kg/s]
Outflow     : -1.8130554e-05 [kg/s]
EnergyInflow  : -5.3458666 [W]
EnergyOutflow : -5.3568934 [W]
rho max/avg/min : 1.2016452 1.1955069 1.0972425
T   max/avg/min : 321.59002 295.25878 293.7
P   max/avg/min : 101324.91 101316.16 101307.41
Prg max/avg/min : 101325 101324.96 101323.47
U   max/avg/min : 0.00066395372 -8.2244215e-05 -0.0008406263
Prg max-min : 1.5261281
 
Iteration Number = 2

DILUPBiCG:  Solving for Ux, Initial residual = 0.36837903, Final residual = 1.3541525e-06, No Iterations 3
DILUPBiCG:  Solving for Uz, Initial residual = 0.40521113, Final residual = 1.0781678e-06, No Iterations 3
DILUPBiCG:  Solving for h, Initial residual = 0.24063762, Final residual = 2.0115688e-05, No Iterations 3
DICPCG:  Solving for p_rgh, Initial residual = 0.031238234, Final residual = 2.3618423e-06, No Iterations 86
time step continuity errors : sum local = 1.1852937e-05, global = 3.1969395e-07, cumulative = -3.1359995e-07
ExecutionTime = 2.58 s  ClockTime = 3 s
Inflow      : -2.6122456e-05 [kg/s]
Outflow     : -2.6103616e-05 [kg/s]
EnergyInflow  : -7.7181984 [W]
EnergyOutflow : -7.7126319 [W]
rho max/avg/min : 1.2016452 1.1903234 1.0513685
T   max/avg/min : 335.63888 296.66879 293.70001
P   max/avg/min : 101324.91 101316.16 101307.41
Prg max/avg/min : 101325 101324.92 101322.8
U   max/avg/min : 0.00097906825 -9.8695763e-05 -0.0011574167
Prg max-min : 2.1974782
 
Iteration Number = 3

DILUPBiCG:  Solving for Ux, Initial residual = 0.23743534, Final residual = 6.890397e-07, No Iterations 3
DILUPBiCG:  Solving for Uz, Initial residual = 0.25295367, Final residual = 3.6806616e-07, No Iterations 3
DILUPBiCG:  Solving for h, Initial residual = 0.15669019, Final residual = 1.5395554e-05, No Iterations 3
DICPCG:  Solving for p_rgh, Initial residual = 0.014225733, Final residual = 1.2283868e-06, No Iterations 85
time step continuity errors : sum local = 1.044973e-05, global = 6.7308385e-08, cumulative = -2.4629156e-07
ExecutionTime = 3.18 s  ClockTime = 3 s
Inflow      : -2.1164492e-05 [kg/s]
Outflow     : -2.1160525e-05 [kg/s]
EnergyInflow  : -6.2533074 [W]
EnergyOutflow : -6.2520747 [W]
rho max/avg/min : 1.2016453 1.185292 1.0193437
T   max/avg/min : 346.18943 298.07852 293.7
P   max/avg/min : 101324.91 101316.16 101307.41
Prg max/avg/min : 101325 101324.88 101322.33
U   max/avg/min : 0.0016929153 -1.381489e-05 -0.0015698994
Prg max-min : 2.6654799
 
Iteration Number = 4

DILUPBiCG:  Solving for Ux, Initial residual = 0.1212816, Final residual = 4.5486278e-07, No Iterations 3
DILUPBiCG:  Solving for Uz, Initial residual = 0.17727818, Final residual = 1.4323929e-05, No Iterations 2
DILUPBiCG:  Solving for h, Initial residual = 0.11481207, Final residual = 1.2601517e-06, No Iterations 4
DICPCG:  Solving for p_rgh, Initial residual = 0.0094682252, Final residual = 9.1906174e-07, No Iterations 86
time step continuity errors : sum local = 1.0965043e-05, global = 3.0758711e-07, cumulative = 6.1295542e-08
ExecutionTime = 3.84 s  ClockTime = 4 s
Inflow      : -1.734957e-05 [kg/s]
Outflow     : -1.7331444e-05 [kg/s]
EnergyInflow  : -5.1261422 [W]
EnergyOutflow : -5.1206067 [W]
rho max/avg/min : 1.2016453 1.1803407 0.99393891
T   max/avg/min : 355.03984 299.49831 293.69998
P   max/avg/min : 101324.91 101316.16 101307.41
Prg max/avg/min : 101325 101324.84 101321.96
U   max/avg/min : 0.0022244178 9.8684498e-05 -0.0019720454
Prg max-min : 3.0374914
 
Iteration Number = 5

DILUPBiCG:  Solving for Ux, Initial residual = 0.098860419, Final residual = 2.8162928e-07, No Iterations 3
DILUPBiCG:  Solving for Uz, Initial residual = 0.2272632, Final residual = 2.2441523e-05, No Iterations 2
DILUPBiCG:  Solving for h, Initial residual = 0.091295949, Final residual = 1.2313805e-06, No Iterations 4
DICPCG:  Solving for p_rgh, Initial residual = 0.0070926995, Final residual = 5.7215258e-07, No Iterations 86
time step continuity errors : sum local = 8.7433793e-06, global = 4.5791037e-07, cumulative = 5.1920592e-07
ExecutionTime = 4.46 s  ClockTime = 5 s
Inflow      : -1.4366229e-05 [kg/s]
Outflow     : -1.4339244e-05 [kg/s]
EnergyInflow  : -4.2446777 [W]
EnergyOutflow : -4.2362938 [W]
rho max/avg/min : 1.2016454 1.175445 0.97258866
T   max/avg/min : 362.83517 300.93006 293.69997
P   max/avg/min : 101324.91 101316.16 101307.41
Prg max/avg/min : 101325 101324.81 101321.65
U   max/avg/min : 0.0026291075 0.00025524476 -0.0023500976
Prg max-min : 3.3494584
 
Iteration Number = 6

DILUPBiCG:  Solving for Ux, Initial residual = 0.068190709, Final residual = 2.3017382e-07, No Iterations 3
DILUPBiCG:  Solving for Uz, Initial residual = 0.17922302, Final residual = 1.2940316e-05, No Iterations 2
DILUPBiCG:  Solving for h, Initial residual = 0.076171149, Final residual = 1.2708534e-06, No Iterations 4
DICPCG:  Solving for p_rgh, Initial residual = 0.0058349051, Final residual = 5.3509703e-07, No Iterations 87
time step continuity errors : sum local = 9.9168749e-06, global = 1.260632e-07, cumulative = 6.4526912e-07
ExecutionTime = 5.08 s  ClockTime = 5 s
Inflow      : -1.1971069e-05 [kg/s]
Outflow     : -1.196364e-05 [kg/s]
EnergyInflow  : -3.5369983 [W]
EnergyOutflow : -3.5339916 [W]
rho max/avg/min : 1.2016454 1.1705936 0.95403614
T   max/avg/min : 369.89224 302.37377 293.69996
P   max/avg/min : 101324.91 101316.16 101307.41
Prg max/avg/min : 101325 101324.77 101321.38
U   max/avg/min : 0.002980764 0.00046395289 -0.002706548
Prg max-min : 3.6211899
 
Iteration Number = 7

DILUPBiCG:  Solving for Ux, Initial residual = 0.058315856, Final residual = 1.8317362e-07, No Iterations 3
DILUPBiCG:  Solving for Uz, Initial residual = 0.18879766, Final residual = 1.8179078e-05, No Iterations 2
DILUPBiCG:  Solving for h, Initial residual = 0.065590902, Final residual = 1.322055e-06, No Iterations 4
DICPCG:  Solving for p_rgh, Initial residual = 0.0051806969, Final residual = 4.9313613e-07, No Iterations 87
time step continuity errors : sum local = 1.0723033e-05, global = 3.7170453e-07, cumulative = 1.0169736e-06
ExecutionTime = 5.71 s  ClockTime = 6 s
Inflow      : -1.0113126e-05 [kg/s]
Outflow     : -1.0091221e-05 [kg/s]
EnergyInflow  : -2.9880466 [W]
EnergyOutflow : -2.9801118 [W]
rho max/avg/min : 1.2016455 1.1657805 0.93755679
T   max/avg/min : 376.39489 303.82882 293.69995
P   max/avg/min : 101324.91 101316.16 101307.41
Prg max/avg/min : 101325 101324.74 101321.14
U   max/avg/min : 0.0032444734 0.00074258984 -0.0030236592
Prg max-min : 3.8620348
 
Iteration Number = 8

DILUPBiCG:  Solving for Ux, Initial residual = 0.044746522, Final residual = 1.6473336e-07, No Iterations 3
DILUPBiCG:  Solving for Uz, Initial residual = 0.16685734, Final residual = 8.6694322e-06, No Iterations 2
DILUPBiCG:  Solving for h, Initial residual = 0.057777963, Final residual = 1.4090959e-06, No Iterations 4
DICPCG:  Solving for p_rgh, Initial residual = 0.0046914051, Final residual = 3.6785915e-07, No Iterations 88
time step continuity errors : sum local = 9.2186534e-06, global = 3.9440073e-08, cumulative = 1.0564137e-06
ExecutionTime = 6.27 s  ClockTime = 6 s
Inflow      : -8.6333338e-06 [kg/s]
Outflow     : -8.6310096e-06 [kg/s]
EnergyInflow  : -2.5508238 [W]
EnergyOutflow : -2.5476637 [W]
rho max/avg/min : 1.2016455 1.1610022 0.92268886
T   max/avg/min : 382.46097 305.29444 293.69994
P   max/avg/min : 101324.91 101316.16 101307.41
Prg max/avg/min : 101325 101324.7 101320.92
U   max/avg/min : 0.0034837933 0.0011034086 -0.0033080388
Prg max-min : 4.0798153
 
Iteration Number = 9

DILUPBiCG:  Solving for Ux, Initial residual = 0.044525287, Final residual = 1.4670519e-07, No Iterations 3
DILUPBiCG:  Solving for Uz, Initial residual = 0.16237842, Final residual = 9.0113773e-06, No Iterations 2
DILUPBiCG:  Solving for h, Initial residual = 0.051753783, Final residual = 1.5037623e-06, No Iterations 4
DICPCG:  Solving for p_rgh, Initial residual = 0.0044538102, Final residual = 3.8454768e-07, No Iterations 88
time step continuity errors : sum local = 1.0849389e-05, global = 2.6051639e-07, cumulative = 1.3169301e-06
ExecutionTime = 6.9 s  ClockTime = 7 s
Inflow      : -7.5695373e-06 [kg/s]
Outflow     : -7.5541849e-06 [kg/s]
EnergyInflow  : -2.2365122 [W]
EnergyOutflow : -2.2279832 [W]
rho max/avg/min : 1.2016455 1.1562565 0.90911708
T   max/avg/min : 388.17141 306.76982 293.69994
P   max/avg/min : 101324.91 101316.16 101307.41
Prg max/avg/min : 101325 101324.67 101320.72
U   max/avg/min : 0.0043646918 0.0015666144 -0.0035347158
Prg max-min : 4.2782289
 
Iteration Number = 10

DILUPBiCG:  Solving for Ux, Initial residual = 0.040100032, Final residual = 1.5256889e-07, No Iterations 3
DILUPBiCG:  Solving for Uz, Initial residual = 0.15258018, Final residual = 7.2552855e-06, No Iterations 2
DILUPBiCG:  Solving for h, Initial residual = 0.04695022, Final residual = 1.6246682e-06, No Iterations 4
DICPCG:  Solving for p_rgh, Initial residual = 0.0043237071, Final residual = 3.803026e-07, No Iterations 88
time step continuity errors : sum local = 1.1917709e-05, global = 1.1778007e-07, cumulative = 1.4347102e-06
ExecutionTime = 7.59 s  ClockTime = 8 s
Inflow      : -6.8669043e-06 [kg/s]
Outflow     : -6.8599634e-06 [kg/s]
EnergyInflow  : -2.0289107 [W]
EnergyOutflow : -2.0206342 [W]
rho max/avg/min : 1.2016455 1.1515422 0.89661517
T   max/avg/min : 393.58465 308.25413 293.69995
P   max/avg/min : 101324.91 101316.16 101307.41
Prg max/avg/min : 101325 101324.63 101320.54
U   max/avg/min : 0.0054950233 0.0021487017 -0.0037117569
Prg max-min : 4.4613656
 
Iteration Number = 11

DILUPBiCG:  Solving for Ux, Initial residual = 0.039763311, Final residual = 1.5871513e-07, No Iterations 3
DILUPBiCG:  Solving for Uz, Initial residual = 0.14771843, Final residual = 5.1601242e-06, No Iterations 2
DILUPBiCG:  Solving for h, Initial residual = 0.049582694, Final residual = 2.0840938e-06, No Iterations 4
DICPCG:  Solving for p_rgh, Initial residual = 0.0051094692, Final residual = 4.9936371e-07, No Iterations 88
time step continuity errors : sum local = 1.7193692e-05, global = 7.0802591e-08, cumulative = 1.5055128e-06
ExecutionTime = 8.22 s  ClockTime = 8 s
Inflow      : -6.5957525e-06 [kg/s]
Outflow     : -6.59158e-06 [kg/s]
EnergyInflow  : -1.9487955 [W]
EnergyOutflow : -1.9381126 [W]
rho max/avg/min : 1.2016454 1.1475965 0.89718486
T   max/avg/min : 393.33433 309.44877 293.69995
P   max/avg/min : 101324.91 101316.16 101307.41
Prg max/avg/min : 101325 101324.6 101320.55
U   max/avg/min : 0.0068513765 0.0028710419 -0.0038032007
Prg max-min : 4.4539074
 
Iteration Number = 12

DILUPBiCG:  Solving for Ux, Initial residual = 0.040233024, Final residual = 1.7594467e-07, No Iterations 3
DILUPBiCG:  Solving for Uz, Initial residual = 0.14514858, Final residual = 8.3226292e-06, No Iterations 2
DILUPBiCG:  Solving for h, Initial residual = 0.031634069, Final residual = 2.1376976e-06, No Iterations 4
DICPCG:  Solving for p_rgh, Initial residual = 0.0047052579, Final residual = 3.6472683e-07, No Iterations 90
time step continuity errors : sum local = 1.3571133e-05, global = -2.375987e-07, cumulative = 1.2679141e-06
ExecutionTime = 8.88 s  ClockTime = 9 s
Inflow      : -6.8349218e-06 [kg/s]
Outflow     : -6.8489236e-06 [kg/s]
EnergyInflow  : -2.019461 [W]
EnergyOutflow : -2.009624 [W]
rho max/avg/min : 1.2016454 1.1436681 0.89257965
T   max/avg/min : 395.3638 310.66015 293.69997
P   max/avg/min : 101324.91 101316.16 101307.41
Prg max/avg/min : 101325 101324.57 101320.48
U   max/avg/min : 0.0084756102 0.003752082 -0.0038033804
Prg max-min : 4.5221431
 
Iteration Number = 13

DILUPBiCG:  Solving for Ux, Initial residual = 0.047087449, Final residual = 2.1778969e-07, No Iterations 3
DILUPBiCG:  Solving for Uz, Initial residual = 0.14217577, Final residual = 7.8989477e-06, No Iterations 2
DILUPBiCG:  Solving for h, Initial residual = 0.029760198, Final residual = 2.9020052e-06, No Iterations 4
DICPCG:  Solving for p_rgh, Initial residual = 0.0047410411, Final residual = 4.4708713e-07, No Iterations 90
time step continuity errors : sum local = 1.7829028e-05, global = -3.7949771e-07, cumulative = 8.8841636e-07
ExecutionTime = 9.48 s  ClockTime = 10 s
Inflow      : -7.7235883e-06 [kg/s]
Outflow     : -7.7459524e-06 [kg/s]
EnergyInflow  : -2.2820284 [W]
EnergyOutflow : -2.2683224 [W]
rho max/avg/min : 1.2016452 1.1397755 0.88681422
T   max/avg/min : 397.91769 311.87527 293.7
P   max/avg/min : 101324.91 101316.16 101307.41
Prg max/avg/min : 101325 101324.55 101320.39
U   max/avg/min : 0.010395973 0.0048143333 -0.0037426671
Prg max-min : 4.6063126
 
Iteration Number = 14

DILUPBiCG:  Solving for Ux, Initial residual = 0.049939446, Final residual = 2.551298e-07, No Iterations 3
DILUPBiCG:  Solving for Uz, Initial residual = 0.13896367, Final residual = 1.042093e-05, No Iterations 2
DILUPBiCG:  Solving for h, Initial residual = 0.028302447, Final residual = 1.534095e-06, No Iterations 5
DICPCG:  Solving for p_rgh, Initial residual = 0.0048847416, Final residual = 4.1030822e-07, No Iterations 91
time step continuity errors : sum local = 1.7489322e-05, global = -3.6057471e-07, cumulative = 5.2784165e-07
ExecutionTime = 10.19 s  ClockTime = 10 s
Inflow      : -9.5134199e-06 [kg/s]
Outflow     : -9.5346689e-06 [kg/s]
EnergyInflow  : -2.810856 [W]
EnergyOutflow : -2.7879758 [W]
rho max/avg/min : 1.201645 1.1359166 0.8807033
T   max/avg/min : 400.65961 313.09251 293.70006
P   max/avg/min : 101324.91 101316.16 101307.41
Prg max/avg/min : 101325 101324.52 101320.3
U   max/avg/min : 0.012689712 0.006076674 -0.0034957634
Prg max-min : 4.6953914
 
Iteration Number = 15

DILUPBiCG:  Solving for Ux, Initial residual = 0.055351456, Final residual = 3.3510186e-07, No Iterations 3
DILUPBiCG:  Solving for Uz, Initial residual = 0.13493813, Final residual = 1.1043287e-05, No Iterations 2
DILUPBiCG:  Solving for h, Initial residual = 0.02696225, Final residual = 1.5664852e-06, No Iterations 5
DICPCG:  Solving for p_rgh, Initial residual = 0.0051388112, Final residual = 3.1699357e-07, No Iterations 92
time step continuity errors : sum local = 1.4388029e-05, global = -2.5141806e-07, cumulative = 2.7642359e-07
ExecutionTime = 10.8 s  ClockTime = 11 s
Inflow      : -1.2102676e-05 [kg/s]
Outflow     : -1.2117492e-05 [kg/s]
EnergyInflow  : -3.5758832 [W]
EnergyOutflow : -3.5387572 [W]
rho max/avg/min : 1.2016446 1.13209 0.87452501
T   max/avg/min : 403.49017 314.31113 293.70016
P   max/avg/min : 101324.91 101316.16 101307.41
Prg max/avg/min : 101325 101324.49 101320.22
U   max/avg/min : 0.015382005 0.0075609143 -0.0032180256
Prg max-min : 4.7850657
 
Iteration Number = 16

DILUPBiCG:  Solving for Ux, Initial residual = 0.0608188, Final residual = 4.5633989e-07, No Iterations 3
DILUPBiCG:  Solving for Uz, Initial residual = 0.13020645, Final residual = 1.2786084e-05, No Iterations 2
DILUPBiCG:  Solving for h, Initial residual = 0.025730889, Final residual = 1.715626e-06, No Iterations 5
DICPCG:  Solving for p_rgh, Initial residual = 0.0055116262, Final residual = 3.9864259e-07, No Iterations 92
time step continuity errors : sum local = 1.916958e-05, global = -3.7110891e-07, cumulative = -9.4685325e-08
ExecutionTime = 11.5 s  ClockTime = 12 s
Inflow      : -1.5841183e-05 [kg/s]
Outflow     : -1.5863053e-05 [kg/s]
EnergyInflow  : -4.6804709 [W]
EnergyOutflow : -4.6282163 [W]
rho max/avg/min : 1.2016439 1.128295 0.86838867
T   max/avg/min : 406.34138 315.53064 293.70034
P   max/avg/min : 101324.91 101316.16 101307.41
Prg max/avg/min : 101325 101324.46 101320.13
U   max/avg/min : 0.018526362 0.0092820539 -0.0039560805
Prg max-min : 4.8743857
 
Iteration Number = 17

DILUPBiCG:  Solving for Ux, Initial residual = 0.066232539, Final residual = 6.1161078e-07, No Iterations 3
DILUPBiCG:  Solving for Uz, Initial residual = 0.12424772, Final residual = 1.660351e-07, No Iterations 3
DILUPBiCG:  Solving for h, Initial residual = 0.024567497, Final residual = 1.9222576e-06, No Iterations 5
DICPCG:  Solving for p_rgh, Initial residual = 0.00605831, Final residual = 5.6013101e-07, No Iterations 92
time step continuity errors : sum local = 2.8197428e-05, global = -5.1046114e-07, cumulative = -6.0514646e-07
ExecutionTime = 12.23 s  ClockTime = 12 s
Inflow      : -2.0520655e-05 [kg/s]
Outflow     : -2.0550737e-05 [kg/s]
EnergyInflow  : -6.0630779 [W]
EnergyOutflow : -5.9893118 [W]
rho max/avg/min : 1.2016425 1.1245318 0.86234617
T   max/avg/min : 409.18864 316.75045 293.70066
P   max/avg/min : 101324.91 101316.16 101307.41
Prg max/avg/min : 101325 101324.43 101320.04
U   max/avg/min : 0.022209567 0.011255394 -0.0054759051
Prg max-min : 4.9621607
 
Iteration Number = 18

DILUPBiCG:  Solving for Ux, Initial residual = 0.070460379, Final residual = 8.0290742e-07, No Iterations 3
DILUPBiCG:  Solving for Uz, Initial residual = 0.11751027, Final residual = 1.6042552e-07, No Iterations 3
DILUPBiCG:  Solving for h, Initial residual = 0.023468232, Final residual = 2.1924104e-06, No Iterations 5
DICPCG:  Solving for p_rgh, Initial residual = 0.0067791593, Final residual = 4.7454666e-07, No Iterations 93
time step continuity errors : sum local = 2.4739331e-05, global = -4.1377463e-07, cumulative = -1.0189211e-06
ExecutionTime = 13.1 s  ClockTime = 13 s
Inflow      : -2.572958e-05 [kg/s]
Outflow     : -2.5753964e-05 [kg/s]
EnergyInflow  : -7.6021184 [W]
EnergyOutflow : -7.4934628 [W]
rho max/avg/min : 1.2016401 1.1208017 0.85642267
T   max/avg/min : 412.01882 317.96975 293.70125
P   max/avg/min : 101324.91 101316.16 101307.41
Prg max/avg/min : 101325 101324.41 101319.95
U   max/avg/min : 0.026463501 0.013492047 -0.0073677457
Prg max-min : 5.048444
 
Iteration Number = 19

DILUPBiCG:  Solving for Ux, Initial residual = 0.072374798, Final residual = 9.9306587e-07, No Iterations 3
DILUPBiCG:  Solving for Uz, Initial residual = 0.10993423, Final residual = 1.5405098e-07, No Iterations 3
DILUPBiCG:  Solving for h, Initial residual = 0.022421807, Final residual = 5.5630841e-07, No Iterations 6
DICPCG:  Solving for p_rgh, Initial residual = 0.0077357724, Final residual = 6.6233086e-07, No Iterations 93
time step continuity errors : sum local = 3.5574171e-05, global = -5.8227216e-07, cumulative = -1.6011932e-06
ExecutionTime = 13.76 s  ClockTime = 14 s
Inflow      : -3.1760141e-05 [kg/s]
Outflow     : -3.1794455e-05 [kg/s]
EnergyInflow  : -9.3839211 [W]
EnergyOutflow : -9.2325503 [W]
rho max/avg/min : 1.2016356 1.1171071 0.85062903
T   max/avg/min : 414.82509 319.18757 293.70236
P   max/avg/min : 101324.91 101316.16 101307.41
Prg max/avg/min : 101325 101324.38 101319.87
U   max/avg/min : 0.0313369 0.015993454 -0.0095388551
Prg max-min : 5.1321799
 
Iteration Number = 20

DILUPBiCG:  Solving for Ux, Initial residual = 0.075787641, Final residual = 1.1973141e-06, No Iterations 3
DILUPBiCG:  Solving for Uz, Initial residual = 0.1021846, Final residual = 1.6921138e-07, No Iterations 3
DILUPBiCG:  Solving for h, Initial residual = 0.021416612, Final residual = 6.8550372e-07, No Iterations 6
DICPCG:  Solving for p_rgh, Initial residual = 0.0085650095, Final residual = 8.0534085e-07, No Iterations 93
time step continuity errors : sum local = 4.4405642e-05, global = -8.1164006e-07, cumulative = -2.4128333e-06
ExecutionTime = 14.45 s  ClockTime = 15 s
Inflow      : -3.5791101e-05 [kg/s]
Outflow     : -3.5838932e-05 [kg/s]
EnergyInflow  : -10.574917 [W]
EnergyOutflow : -10.36582 [W]
rho max/avg/min : 1.2016283 1.1134509 0.8449701
T   max/avg/min : 417.60326 320.4028 293.70415
P   max/avg/min : 101324.91 101316.16 101307.41
Prg max/avg/min : 101325 101324.35 101319.79
U   max/avg/min : 0.036868974 0.018771835 -0.012440797
Prg max-min : 5.2142911
 
Iteration Number = 21

DILUPBiCG:  Solving for Ux, Initial residual = 0.075481623, Final residual = 1.6880872e-06, No Iterations 3
DILUPBiCG:  Solving for Uz, Initial residual = 0.094035749, Final residual = 2.0854117e-07, No Iterations 3
DILUPBiCG:  Solving for h, Initial residual = 0.021747039, Final residual = 1.1972637e-06, No Iterations 6
DICPCG:  Solving for p_rgh, Initial residual = 0.0098775304, Final residual = 5.9577365e-07, No Iterations 94
time step continuity errors : sum local = 3.375546e-05, global = -6.4394981e-07, cumulative = -3.0567831e-06
ExecutionTime = 15.09 s  ClockTime = 15 s
Inflow      : -3.9205773e-05 [kg/s]
Outflow     : -3.9243721e-05 [kg/s]
EnergyInflow  : -11.583824 [W]
EnergyOutflow : -11.289364 [W]
rho max/avg/min : 1.2016162 1.1100969 0.84356544
T   max/avg/min : 418.29864 321.49425 293.70709
P   max/avg/min : 101324.91 101316.16 101307.42
Prg max/avg/min : 101325.01 101324.33 101319.77
U   max/avg/min : 0.04308226 0.02181189 -0.016120301
Prg max-min : 5.2332549
 
Iteration Number = 22

DILUPBiCG:  Solving for Ux, Initial residual = 0.077385668, Final residual = 4.1177022e-06, No Iterations 3
DILUPBiCG:  Solving for Uz, Initial residual = 0.08655145, Final residual = 2.3251246e-07, No Iterations 3
DILUPBiCG:  Solving for h, Initial residual = 0.01710847, Final residual = 4.7546566e-07, No Iterations 7
DICPCG:  Solving for p_rgh, Initial residual = 0.010418891, Final residual = 6.933266e-07, No Iterations 94
time step continuity errors : sum local = 4.0106627e-05, global = -8.176802e-07, cumulative = -3.8744633e-06
ExecutionTime = 15.84 s  ClockTime = 16 s
Inflow      : -4.0072367e-05 [kg/s]
Outflow     : -4.0120553e-05 [kg/s]
EnergyInflow  : -11.83987 [W]
EnergyOutflow : -11.441802 [W]
rho max/avg/min : 1.2016024 1.1067861 0.84033987
T   max/avg/min : 419.90425 322.58413 293.71047
P   max/avg/min : 101324.91 101316.16 101307.42
Prg max/avg/min : 101325.01 101324.3 101319.73
U   max/avg/min : 0.050003699 0.02510928 -0.020047584
Prg max-min : 5.2793568
 
Iteration Number = 23

DILUPBiCG:  Solving for Ux, Initial residual = 0.077409058, Final residual = 6.2277287e-08, No Iterations 4
DILUPBiCG:  Solving for Uz, Initial residual = 0.079075501, Final residual = 2.4625876e-07, No Iterations 3
DILUPBiCG:  Solving for h, Initial residual = 0.016434161, Final residual = 6.3843498e-07, No Iterations 6
DICPCG:  Solving for p_rgh, Initial residual = 0.011053123, Final residual = 7.7007856e-07, No Iterations 94
time step continuity errors : sum local = 4.5600067e-05, global = -9.9151236e-07, cumulative = -4.8659757e-06
ExecutionTime = 16.52 s  ClockTime = 17 s
Inflow      : -3.6136981e-05 [kg/s]
Outflow     : -3.6195412e-05 [kg/s]
EnergyInflow  : -10.677112 [W]
EnergyOutflow : -10.146863 [W]
rho max/avg/min : 1.2015925 1.1035305 0.83667129
T   max/avg/min : 421.74543 323.66602 293.71289
P   max/avg/min : 101324.91 101316.16 101307.42
Prg max/avg/min : 101325.01 101324.28 101319.68
U   max/avg/min : 0.057666785 0.028661158 -0.023855824
Prg max-min : 5.3309145
 
Iteration Number = 24

DILUPBiCG:  Solving for Ux, Initial residual = 0.074768163, Final residual = 7.2770928e-08, No Iterations 4
DILUPBiCG:  Solving for Uz, Initial residual = 0.072470313, Final residual = 2.4848899e-07, No Iterations 3
DILUPBiCG:  Solving for h, Initial residual = 0.015788233, Final residual = 6.8676669e-07, No Iterations 6
DICPCG:  Solving for p_rgh, Initial residual = 0.011316728, Final residual = 1.1032338e-06, No Iterations 93
time step continuity errors : sum local = 6.6942728e-05, global = -1.5292931e-06, cumulative = -6.3952687e-06
ExecutionTime = 17.2 s  ClockTime = 17 s
Inflow      : -2.8850079e-05 [kg/s]
Outflow     : -2.8940201e-05 [kg/s]
EnergyInflow  : -8.5241078 [W]
EnergyOutflow : -7.8324401 [W]
rho max/avg/min : 1.2015885 1.1003335 0.83283859
T   max/avg/min : 423.68631 324.73818 293.71387
P   max/avg/min : 101324.91 101316.17 101307.42
Prg max/avg/min : 101325.01 101324.26 101319.62
U   max/avg/min : 0.065935407 0.03243867 -0.027539082
Prg max-min : 5.3855186
 
Iteration Number = 25

DILUPBiCG:  Solving for Ux, Initial residual = 0.076140282, Final residual = 8.3277108e-08, No Iterations 4
DILUPBiCG:  Solving for Uz, Initial residual = 0.066364416, Final residual = 2.4419253e-07, No Iterations 3
DILUPBiCG:  Solving for h, Initial residual = 0.015164537, Final residual = 6.5039276e-07, No Iterations 6
DICPCG:  Solving for p_rgh, Initial residual = 0.01113711, Final residual = 9.2521194e-07, No Iterations 94
time step continuity errors : sum local = 5.7888295e-05, global = -1.4186749e-06, cumulative = -7.8139437e-06
ExecutionTime = 17.91 s  ClockTime = 18 s
Inflow      : -1.6153561e-05 [kg/s]
Outflow     : -1.6237164e-05 [kg/s]
EnergyInflow  : -4.7727665 [W]
EnergyOutflow : -3.8702015 [W]
rho max/avg/min : 1.2015875 1.0971978 0.8289403
T   max/avg/min : 425.6788 325.79945 293.71412
P   max/avg/min : 101324.91 101316.17 101307.42
Prg max/avg/min : 101325.01 101324.23 101319.57
U   max/avg/min : 0.074995894 0.036432399 -0.030914829
Prg max-min : 5.4400918
 
Iteration Number = 26

DILUPBiCG:  Solving for Ux, Initial residual = 0.070434942, Final residual = 3.0492604e-06, No Iterations 3
DILUPBiCG:  Solving for Uz, Initial residual = 0.060891524, Final residual = 2.3735132e-07, No Iterations 3
DILUPBiCG:  Solving for h, Initial residual = 0.014573292, Final residual = 1.001672e-06, No Iterations 6
DICPCG:  Solving for p_rgh, Initial residual = 0.011536214, Final residual = 1.0069784e-06, No Iterations 92
time step continuity errors : sum local = 6.5244927e-05, global = -1.1707746e-06, cumulative = -8.9847183e-06
ExecutionTime = 18.62 s  ClockTime = 19 s
Inflow      : 2.7526159e-06 [kg/s]
Outflow     : 2.6836212e-06 [kg/s]
EnergyInflow  : 0.81329394 [W]
EnergyOutflow : 1.9766333 [W]
rho max/avg/min : 1.2015904 1.0941257 0.82502367
T   max/avg/min : 427.69964 326.8488 293.7134
P   max/avg/min : 101324.91 101316.17 101307.43
Prg max/avg/min : 101325.01 101324.21 101319.52
U   max/avg/min : 0.084621877 0.040624231 -0.034099447
Prg max-min : 5.4955867
 
Iteration Number = 27

DILUPBiCG:  Solving for Ux, Initial residual = 0.066919925, Final residual = 5.2353711e-06, No Iterations 3
DILUPBiCG:  Solving for Uz, Initial residual = 0.056020533, Final residual = 2.32566e-07, No Iterations 3
DILUPBiCG:  Solving for h, Initial residual = 0.014008074, Final residual = 2.2576834e-07, No Iterations 7
DICPCG:  Solving for p_rgh, Initial residual = 0.010913472, Final residual = 8.3260366e-07, No Iterations 94
time step continuity errors : sum local = 5.597265e-05, global = -1.5531586e-06, cumulative = -1.0537877e-05
ExecutionTime = 19.24 s  ClockTime = 19 s
Inflow      : 2.6356273e-05 [kg/s]
Outflow     : 2.6264744e-05 [kg/s]
EnergyInflow  : 7.7872823 [W]
EnergyOutflow : 9.2508372 [W]
rho max/avg/min : 1.2015963 1.0911201 0.82111499
T   max/avg/min : 429.7356 327.88519 293.71196
P   max/avg/min : 101324.91 101316.17 101307.43
Prg max/avg/min : 101325.01 101324.19 101319.46
U   max/avg/min : 0.094826389 0.044982285 -0.037072691
Prg max-min : 5.5496259
 
Iteration Number = 28

DILUPBiCG:  Solving for Ux, Initial residual = 0.062413231, Final residual = 4.0140462e-06, No Iterations 3
DILUPBiCG:  Solving for Uz, Initial residual = 0.051648747, Final residual = 2.3339008e-07, No Iterations 3
DILUPBiCG:  Solving for h, Initial residual = 0.013471756, Final residual = 1.0393729e-06, No Iterations 7
DICPCG:  Solving for p_rgh, Initial residual = 0.010936571, Final residual = 9.1093417e-07, No Iterations 91
time step continuity errors : sum local = 6.327242e-05, global = -2.2931646e-07, cumulative = -1.0767193e-05
ExecutionTime = 19.84 s  ClockTime = 20 s
Inflow      : 5.7571208e-05 [kg/s]
Outflow     : 5.7557694e-05 [kg/s]
EnergyInflow  : 17.010116 [W]
EnergyOutflow : 18.861592 [W]
rho max/avg/min : 1.2016049 1.0881832 0.81723022
T   max/avg/min : 431.7784 328.90767 293.70986
P   max/avg/min : 101324.91 101316.17 101307.43
Prg max/avg/min : 101325.01 101324.17 101319.41
U   max/avg/min : 0.10573794 0.049500857 -0.039844348
Prg max-min : 5.6043003
 
Iteration Number = 29

DILUPBiCG:  Solving for Ux, Initial residual = 0.057989556, Final residual = 5.0759491e-06, No Iterations 3
DILUPBiCG:  Solving for Uz, Initial residual = 0.047792213, Final residual = 2.3178537e-07, No Iterations 3
DILUPBiCG:  Solving for h, Initial residual = 0.012966391, Final residual = 5.750441e-07, No Iterations 7
DICPCG:  Solving for p_rgh, Initial residual = 0.01084407, Final residual = 1.0253739e-06, No Iterations 90
time step continuity errors : sum local = 7.4092258e-05, global = 4.271363e-07, cumulative = -1.0340057e-05
ExecutionTime = 20.43 s  ClockTime = 21 s
Inflow      : 9.6498184e-05 [kg/s]
Outflow     : 9.6523355e-05 [kg/s]
EnergyInflow  : 28.511566 [W]
EnergyOutflow : 30.805311 [W]
rho max/avg/min : 1.201616 1.0853181 0.81337991
T   max/avg/min : 433.82233 329.91513 293.70714
P   max/avg/min : 101324.91 101316.17 101307.44
Prg max/avg/min : 101325.02 101324.14 101319.36
U   max/avg/min : 0.11714744 0.054160044 -0.042514433
Prg max-min : 5.6571407
 
Iteration Number = 30

DILUPBiCG:  Solving for Ux, Initial residual = 0.054226591, Final residual = 3.4436069e-06, No Iterations 3
DILUPBiCG:  Solving for Uz, Initial residual = 0.04433714, Final residual = 2.4987589e-07, No Iterations 3
DILUPBiCG:  Solving for h, Initial residual = 0.012491982, Final residual = 3.8957843e-07, No Iterations 7
DICPCG:  Solving for p_rgh, Initial residual = 0.011392878, Final residual = 1.0626966e-06, No Iterations 89
time step continuity errors : sum local = 7.9621666e-05, global = 2.04866e-06, cumulative = -8.291397e-06
ExecutionTime = 21.09 s  ClockTime = 21 s
Inflow      : 0.00014422281 [kg/s]
Outflow     : 0.00014434354 [kg/s]
EnergyInflow  : 42.61239 [W]
EnergyOutflow : 45.440474 [W]
rho max/avg/min : 1.2016255 1.0825269 0.80957089
T   max/avg/min : 435.86348 330.90667 293.70482
P   max/avg/min : 101324.91 101316.17 101307.44
Prg max/avg/min : 101325.02 101324.12 101319.31
U   max/avg/min : 0.12901713 0.058946036 -0.04489151
Prg max-min : 5.7097474
 
Iteration Number = 31

DILUPBiCG:  Solving for Ux, Initial residual = 0.049541238, Final residual = 3.8432174e-06, No Iterations 3
DILUPBiCG:  Solving for Uz, Initial residual = 0.041458039, Final residual = 2.6472477e-07, No Iterations 3
DILUPBiCG:  Solving for h, Initial residual = 0.012799176, Final residual = 2.6546009e-07, No Iterations 9
DICPCG:  Solving for p_rgh, Initial residual = 0.011982072, Final residual = 9.6923039e-07, No Iterations 89
time step continuity errors : sum local = 7.5198585e-05, global = 1.5479347e-06, cumulative = -6.7434623e-06
ExecutionTime = 21.69 s  ClockTime = 22 s
Inflow      : 0.00020054422 [kg/s]
Outflow     : 0.00020063544 [kg/s]
EnergyInflow  : 59.253237 [W]
EnergyOutflow : 62.662679 [W]
rho max/avg/min : 1.2016337 1.079995 0.80860905
T   max/avg/min : 436.38196 331.78933 293.70281
P   max/avg/min : 101324.91 101316.17 101307.44
Prg max/avg/min : 101325.02 101324.1 101319.3
U   max/avg/min : 0.1413073 0.063836696 -0.047063458
Prg max-min : 5.7194573
 
Iteration Number = 32

DILUPBiCG:  Solving for Ux, Initial residual = 0.046219697, Final residual = 2.0041531e-06, No Iterations 3
DILUPBiCG:  Solving for Uz, Initial residual = 0.038796499, Final residual = 3.3367289e-07, No Iterations 3
DILUPBiCG:  Solving for h, Initial residual = 0.010230883, Final residual = 5.4230312e-07, No Iterations 8
DICPCG:  Solving for p_rgh, Initial residual = 0.011613194, Final residual = 8.16983e-07, No Iterations 89
time step continuity errors : sum local = 6.4995887e-05, global = 1.0066577e-06, cumulative = -5.7368046e-06
ExecutionTime = 22.27 s  ClockTime = 22 s
Inflow      : 0.00026707815 [kg/s]
Outflow     : 0.00026713747 [kg/s]
EnergyInflow  : 78.911496 [W]
EnergyOutflow : 82.990067 [W]
rho max/avg/min : 1.2016395 1.07754 0.80639728
T   max/avg/min : 437.57888 332.65687 293.70141
P   max/avg/min : 101324.91 101316.17 101307.44
Prg max/avg/min : 101325.02 101324.08 101319.27
U   max/avg/min : 0.15397536 0.068821594 -0.04995648
Prg max-min : 5.7486101
 
Iteration Number = 33

DILUPBiCG:  Solving for Ux, Initial residual = 0.044005039, Final residual = 2.751893e-06, No Iterations 3
DILUPBiCG:  Solving for Uz, Initial residual = 0.036909591, Final residual = 3.5445352e-07, No Iterations 3
DILUPBiCG:  Solving for h, Initial residual = 0.0099020721, Final residual = 5.7317427e-07, No Iterations 8
DICPCG:  Solving for p_rgh, Initial residual = 0.012768898, Final residual = 1.0456012e-06, No Iterations 89
time step continuity errors : sum local = 8.1328602e-05, global = 1.4515469e-07, cumulative = -5.5916499e-06
ExecutionTime = 22.9 s  ClockTime = 23 s
Inflow      : 0.00034294738 [kg/s]
Outflow     : 0.00034295593 [kg/s]
EnergyInflow  : 101.32799 [W]
EnergyOutflow : 106.15826 [W]
rho max/avg/min : 1.2016428 1.0751697 0.80385523
T   max/avg/min : 438.96266 333.50465 293.70059
P   max/avg/min : 101324.91 101316.17 101307.45
Prg max/avg/min : 101325.02 101324.06 101319.24
U   max/avg/min : 0.16697868 0.073880524 -0.053342327
Prg max-min : 5.7803977
 
Iteration Number = 34

DILUPBiCG:  Solving for Ux, Initial residual = 0.043280767, Final residual = 2.0506569e-06, No Iterations 3
DILUPBiCG:  Solving for Uz, Initial residual = 0.035017679, Final residual = 5.1827392e-07, No Iterations 3
DILUPBiCG:  Solving for h, Initial residual = 0.0095853063, Final residual = 4.957894e-07, No Iterations 8
DICPCG:  Solving for p_rgh, Initial residual = 0.014128103, Final residual = 1.270131e-06, No Iterations 90
time step continuity errors : sum local = 9.3277381e-05, global = -2.8700066e-06, cumulative = -8.4616565e-06
ExecutionTime = 23.51 s  ClockTime = 24 s
Inflow      : 0.00043310435 [kg/s]
Outflow     : 0.00043293522 [kg/s]
EnergyInflow  : 127.96596 [W]
EnergyOutflow : 133.62698 [W]
rho max/avg/min : 1.2016447 1.0728857 0.80117484
T   max/avg/min : 440.43127 334.33155 293.70014
P   max/avg/min : 101324.91 101316.17 101307.45
Prg max/avg/min : 101325.02 101324.05 101319.2
U   max/avg/min : 0.18027482 0.079019033 -0.056264082
Prg max-min : 5.8153161
 
Iteration Number = 35

DILUPBiCG:  Solving for Ux, Initial residual = 0.04275336, Final residual = 1.9773633e-06, No Iterations 3
DILUPBiCG:  Solving for Uz, Initial residual = 0.034361797, Final residual = 4.3003091e-07, No Iterations 3
DILUPBiCG:  Solving for h, Initial residual = 0.0092794481, Final residual = 8.1916165e-07, No Iterations 9
DICPCG:  Solving for p_rgh, Initial residual = 0.014479455, Final residual = 1.2835958e-06, No Iterations 87
time step continuity errors : sum local = 8.8243647e-05, global = 3.6889073e-06, cumulative = -4.7727491e-06
ExecutionTime = 24.11 s  ClockTime = 24 s
Inflow      : 0.00052807049 [kg/s]
Outflow     : 0.00052828788 [kg/s]
EnergyInflow  : 156.02487 [W]
EnergyOutflow : 162.77766 [W]
rho max/avg/min : 1.2016455 1.0706899 0.79842619
T   max/avg/min : 441.9475 335.13668 293.69994
P   max/avg/min : 101324.91 101316.17 101307.46
Prg max/avg/min : 101325.02 101324.03 101319.17
U   max/avg/min : 0.19388248 0.084179367 -0.058752739
Prg max-min : 5.8504279
 
Iteration Number = 36

DILUPBiCG:  Solving for Ux, Initial residual = 0.042435119, Final residual = 2.2090364e-06, No Iterations 3
DILUPBiCG:  Solving for Uz, Initial residual = 0.032412734, Final residual = 1.6820307e-06, No Iterations 3
DILUPBiCG:  Solving for h, Initial residual = 0.0089811528, Final residual = 4.4186924e-07, No Iterations 8
DICPCG:  Solving for p_rgh, Initial residual = 0.01497841, Final residual = 1.4117445e-06, No Iterations 89
time step continuity errors : sum local = 9.1760011e-05, global = -3.434864e-07, cumulative = -5.1162355e-06
ExecutionTime = 24.78 s  ClockTime = 25 s
Inflow      : 0.00063627506 [kg/s]
Outflow     : 0.00063625482 [kg/s]
EnergyInflow  : 187.99523 [W]
EnergyOutflow : 195.75103 [W]
rho max/avg/min : 1.2016457 1.0685818 0.79564407
T   max/avg/min : 443.49289 335.91983 293.69985
P   max/avg/min : 101324.91 101316.17 101307.46
Prg max/avg/min : 101325.02 101324.01 101319.13
U   max/avg/min : 0.20770516 0.089382148 -0.060945761
Prg max-min : 5.8886077
 
Iteration Number = 37

DILUPBiCG:  Solving for Ux, Initial residual = 0.042510376, Final residual = 2.157147e-06, No Iterations 3
DILUPBiCG:  Solving for Uz, Initial residual = 0.032501489, Final residual = 4.5841816e-07, No Iterations 3
DILUPBiCG:  Solving for h, Initial residual = 0.0086943019, Final residual = 2.6010559e-07, No Iterations 8
DICPCG:  Solving for p_rgh, Initial residual = 0.016874644, Final residual = 1.474306e-06, No Iterations 88
time step continuity errors : sum local = 9.1334869e-05, global = 1.8946677e-06, cumulative = -3.2215679e-06
ExecutionTime = 25.5 s  ClockTime = 26 s
Inflow      : 0.00075691138 [kg/s]
Outflow     : 0.00075702304 [kg/s]
EnergyInflow  : 223.6387 [W]
EnergyOutflow : 232.61969 [W]
rho max/avg/min : 1.2016458 1.0665626 0.79284914
T   max/avg/min : 445.05627 336.68041 293.6997
P   max/avg/min : 101324.91 101316.18 101307.46
Prg max/avg/min : 101325.02 101324 101319.09
U   max/avg/min : 0.22170996 0.094626198 -0.062607491
Prg max-min : 5.9233156
 
Iteration Number = 38

DILUPBiCG:  Solving for Ux, Initial residual = 0.041975239, Final residual = 2.4315761e-06, No Iterations 3
DILUPBiCG:  Solving for Uz, Initial residual = 0.031092616, Final residual = 2.1767758e-06, No Iterations 3
DILUPBiCG:  Solving for h, Initial residual = 0.0084123105, Final residual = 3.0185043e-07, No Iterations 8
DICPCG:  Solving for p_rgh, Initial residual = 0.01704252, Final residual = 1.5950124e-06, No Iterations 90
time step continuity errors : sum local = 9.4498617e-05, global = -6.1707225e-07, cumulative = -3.8386401e-06
ExecutionTime = 26.23 s  ClockTime = 26 s
Inflow      : 0.00088358532 [kg/s]
Outflow     : 0.00088354895 [kg/s]
EnergyInflow  : 261.06606 [W]
EnergyOutflow : 271.29358 [W]
rho max/avg/min : 1.2016459 1.0646337 0.79005456
T   max/avg/min : 446.63056 337.41779 293.6995
P   max/avg/min : 101324.91 101316.18 101307.46
Prg max/avg/min : 101325.02 101323.98 101319.05
U   max/avg/min : 0.23583938 0.099857873 -0.063915016
Prg max-min : 5.9618874
 
Iteration Number = 39

DILUPBiCG:  Solving for Ux, Initial residual = 0.04181119, Final residual = 2.5228542e-06, No Iterations 3
DILUPBiCG:  Solving for Uz, Initial residual = 0.030535622, Final residual = 4.6114524e-07, No Iterations 3
DILUPBiCG:  Solving for h, Initial residual = 0.0081298337, Final residual = 2.7599695e-07, No Iterations 8
DICPCG:  Solving for p_rgh, Initial residual = 0.017633638, Final residual = 1.7202388e-06, No Iterations 89
time step continuity errors : sum local = 9.8278372e-05, global = -4.0980741e-07, cumulative = -4.2484475e-06
ExecutionTime = 26.83 s  ClockTime = 27 s
Inflow      : 0.001024341 [kg/s]
Outflow     : 0.0010243169 [kg/s]
EnergyInflow  : 302.65405 [W]
EnergyOutflow : 314.25966 [W]
rho max/avg/min : 1.2016459 1.0627955 0.7872695
T   max/avg/min : 448.21057 338.13158 293.6993
P   max/avg/min : 101324.91 101316.18 101307.46
Prg max/avg/min : 101325.01 101323.96 101319.02
U   max/avg/min : 0.25006836 0.10512515 -0.064680783
Prg max-min : 5.9970212
 
Iteration Number = 40

DILUPBiCG:  Solving for Ux, Initial residual = 0.041081981, Final residual = 2.3620206e-06, No Iterations 3
DILUPBiCG:  Solving for Uz, Initial residual = 0.029893131, Final residual = 3.8500155e-07, No Iterations 3
DILUPBiCG:  Solving for h, Initial residual = 0.0078579289, Final residual = 3.3651134e-07, No Iterations 8
DICPCG:  Solving for p_rgh, Initial residual = 0.020023618, Final residual = 1.6763788e-06, No Iterations 90
time step continuity errors : sum local = 9.2518494e-05, global = -4.5404583e-07, cumulative = -4.7024934e-06
ExecutionTime = 27.54 s  ClockTime = 28 s
Inflow      : 0.0011829001 [kg/s]
Outflow     : 0.0011828733 [kg/s]
EnergyInflow  : 349.50226 [W]
EnergyOutflow : 362.58469 [W]
rho max/avg/min : 1.2016459 1.0610493 0.78450032
T   max/avg/min : 449.79271 338.82123 293.69906
P   max/avg/min : 101324.91 101316.17 101307.46
Prg max/avg/min : 101325.01 101323.95 101318.97
U   max/avg/min : 0.26437971 0.11043917 -0.064788163
Prg max-min : 6.0360832
 
Iteration Number = 41

DILUPBiCG:  Solving for Ux, Initial residual = 0.040737279, Final residual = 2.3178322e-06, No Iterations 3
DILUPBiCG:  Solving for Uz, Initial residual = 0.029345224, Final residual = 4.8703789e-07, No Iterations 3
DILUPBiCG:  Solving for h, Initial residual = 0.0080550831, Final residual = 1.8585304e-07, No Iterations 10
DICPCG:  Solving for p_rgh, Initial residual = 0.021626938, Final residual = 2.0644528e-06, No Iterations 68
time step continuity errors : sum local = 0.00010910016, global = -3.3431551e-05, cumulative = -3.8134044e-05
ExecutionTime = 28.12 s  ClockTime = 28 s
Inflow      : 0.0013390578 [kg/s]
Outflow     : 0.0013370877 [kg/s]
EnergyInflow  : 395.64098 [W]
EnergyOutflow : 409.67671 [W]
rho max/avg/min : 1.2016459 1.0595246 0.78385253
T   max/avg/min : 450.16442 339.41784 293.69879
P   max/avg/min : 101324.91 101316.17 101307.46
Prg max/avg/min : 101325.01 101323.94 101318.97
U   max/avg/min : 0.27874038 0.11570393 -0.064366202
Prg max-min : 6.0402344
 
Iteration Number = 42

DILUPBiCG:  Solving for Ux, Initial residual = 0.039371396, Final residual = 2.9779663e-06, No Iterations 3
DILUPBiCG:  Solving for Uz, Initial residual = 0.027499635, Final residual = 5.0011108e-07, No Iterations 3
DILUPBiCG:  Solving for h, Initial residual = 0.0064515507, Final residual = 5.8253316e-07, No Iterations 10
DICPCG:  Solving for p_rgh, Initial residual = 0.024803388, Final residual = 2.285567e-06, No Iterations 89
time step continuity errors : sum local = 0.00011506425, global = 5.8238553e-07, cumulative = -3.7551659e-05
ExecutionTime = 28.75 s  ClockTime = 29 s
Inflow      : 0.0015092097 [kg/s]
Outflow     : 0.001509244 [kg/s]
EnergyInflow  : 445.91441 [W]
EnergyOutflow : 462.13221 [W]
rho max/avg/min : 1.2016459 1.0580907 0.7822647
T   max/avg/min : 451.07818 339.99178 293.69851
P   max/avg/min : 101324.91 101316.17 101307.46
Prg max/avg/min : 101325 101323.92 101318.94
U   max/avg/min : 0.29321429 0.12102067 -0.063085411
Prg max-min : 6.0642006
 
Iteration Number = 43

DILUPBiCG:  Solving for Ux, Initial residual = 0.038761643, Final residual = 2.8418151e-06, No Iterations 3
DILUPBiCG:  Solving for Uz, Initial residual = 0.027440388, Final residual = 6.257601e-07, No Iterations 3
DILUPBiCG:  Solving for h, Initial residual = 0.0062016492, Final residual = 3.5494395e-07, No Iterations 11
DICPCG:  Solving for p_rgh, Initial residual = 0.029885136, Final residual = 2.5750769e-06, No Iterations 91
time step continuity errors : sum local = 0.00012092994, global = -2.7304486e-07, cumulative = -3.7824704e-05
ExecutionTime = 29.37 s  ClockTime = 29 s
Inflow      : 0.0016968532 [kg/s]
Outflow     : 0.0016968371 [kg/s]
EnergyInflow  : 501.35597 [W]
EnergyOutflow : 519.18463 [W]
rho max/avg/min : 1.2016459 1.0567502 0.78042172
T   max/avg/min : 452.14337 340.54041 293.69818
P   max/avg/min : 101324.91 101316.17 101307.45
Prg max/avg/min : 101325 101323.9 101318.91
U   max/avg/min : 0.30781042 0.12644448 -0.061145946
Prg max-min : 6.0888527
 
Iteration Number = 44

DILUPBiCG:  Solving for Ux, Initial residual = 0.038199119, Final residual = 2.6787033e-06, No Iterations 3
DILUPBiCG:  Solving for Uz, Initial residual = 0.0260039, Final residual = 5.9816318e-07, No Iterations 3
DILUPBiCG:  Solving for h, Initial residual = 0.0059446697, Final residual = 3.7462361e-08, No Iterations 12
DICPCG:  Solving for p_rgh, Initial residual = 0.032236024, Final residual = 2.4052381e-06, No Iterations 92
time step continuity errors : sum local = 0.00010441633, global = -4.5733341e-07, cumulative = -3.8282037e-05
ExecutionTime = 30.09 s  ClockTime = 30 s
Inflow      : 0.0018742955 [kg/s]
Outflow     : 0.0018742685 [kg/s]
EnergyInflow  : 553.78346 [W]
EnergyOutflow : 573.1903 [W]
rho max/avg/min : 1.2016459 1.0554985 0.77846767
T   max/avg/min : 453.27831 341.06442 293.69783
P   max/avg/min : 101324.91 101316.17 101307.45
Prg max/avg/min : 101325 101323.89 101318.88
U   max/avg/min : 0.32253343 0.13184134 -0.05855573
Prg max-min : 6.1238681
 
Iteration Number = 45

DILUPBiCG:  Solving for Ux, Initial residual = 0.038587978, Final residual = 2.6655046e-06, No Iterations 3
DILUPBiCG:  Solving for Uz, Initial residual = 0.024591719, Final residual = 5.6258072e-07, No Iterations 3
DILUPBiCG:  Solving for h, Initial residual = 0.0056853996, Final residual = 2.8606455e-07, No Iterations 10
DICPCG:  Solving for p_rgh, Initial residual = 0.030075093, Final residual = 2.432039e-06, No Iterations 91
time step continuity errors : sum local = 9.8637349e-05, global = -1.8054611e-06, cumulative = -4.0087498e-05
ExecutionTime = 30.78 s  ClockTime = 31 s
Inflow      : 0.0020603093 [kg/s]
Outflow     : 0.0020602029 [kg/s]
EnergyInflow  : 608.74353 [W]
EnergyOutflow : 629.68378 [W]
rho max/avg/min : 1.2016459 1.0543287 0.77645514
T   max/avg/min : 454.45315 341.5653 293.69747
P   max/avg/min : 101324.91 101316.16 101307.44
Prg max/avg/min : 101325 101323.87 101318.84
U   max/avg/min : 0.33739121 0.13729954 -0.055468063
Prg max-min : 6.1594728
 
Iteration Number = 46

DILUPBiCG:  Solving for Ux, Initial residual = 0.038880004, Final residual = 2.7799853e-06, No Iterations 3
DILUPBiCG:  Solving for Uz, Initial residual = 0.024406491, Final residual = 5.8975868e-07, No Iterations 3
DILUPBiCG:  Solving for h, Initial residual = 0.0054461545, Final residual = 2.9736028e-07, No Iterations 10
DICPCG:  Solving for p_rgh, Initial residual = 0.029179035, Final residual = 2.0640009e-06, No Iterations 92
time step continuity errors : sum local = 7.8629472e-05, global = 1.0957788e-06, cumulative = -3.8991719e-05
ExecutionTime = 31.46 s  ClockTime = 32 s
Inflow      : 0.0022482251 [kg/s]
Outflow     : 0.0022482897 [kg/s]
EnergyInflow  : 664.26553 [W]
EnergyOutflow : 686.74142 [W]
rho max/avg/min : 1.2016459 1.053235 0.77441033
T   max/avg/min : 455.65309 342.04434 293.69705
P   max/avg/min : 101324.91 101316.16 101307.43
Prg max/avg/min : 101325 101323.86 101318.8
U   max/avg/min : 0.35236004 0.14277646 -0.0517671
Prg max-min : 6.1960401
 
Iteration Number = 47

DILUPBiCG:  Solving for Ux, Initial residual = 0.039307608, Final residual = 3.0402392e-07, No Iterations 4
DILUPBiCG:  Solving for Uz, Initial residual = 0.022921994, Final residual = 5.5184867e-07, No Iterations 3
DILUPBiCG:  Solving for h, Initial residual = 0.0052160324, Final residual = 2.3232683e-07, No Iterations 10
DICPCG:  Solving for p_rgh, Initial residual = 0.027987213, Final residual = 2.1075832e-06, No Iterations 91
time step continuity errors : sum local = 7.5498634e-05, global = -2.0159808e-07, cumulative = -3.9193317e-05
ExecutionTime = 32.15 s  ClockTime = 32 s
Inflow      : 0.0024384315 [kg/s]
Outflow     : 0.0024384196 [kg/s]
EnergyInflow  : 720.46432 [W]
EnergyOutflow : 744.31902 [W]
rho max/avg/min : 1.2016459 1.0522111 0.7723494
T   max/avg/min : 456.86892 342.50301 293.69663
P   max/avg/min : 101324.91 101316.15 101307.42
Prg max/avg/min : 101325 101323.85 101318.77
U   max/avg/min : 0.36743041 0.14825572 -0.047300296
Prg max-min : 6.2328365
 
Iteration Number = 48

DILUPBiCG:  Solving for Ux, Initial residual = 0.040238161, Final residual = 3.4173157e-06, No Iterations 3
DILUPBiCG:  Solving for Uz, Initial residual = 0.022740544, Final residual = 5.7845948e-07, No Iterations 3
DILUPBiCG:  Solving for h, Initial residual = 0.0049938605, Final residual = 3.6503855e-07, No Iterations 10
DICPCG:  Solving for p_rgh, Initial residual = 0.02953332, Final residual = 2.4861187e-06, No Iterations 93
time step continuity errors : sum local = 8.3954711e-05, global = -1.2281756e-06, cumulative = -4.0421493e-05
ExecutionTime = 32.78 s  ClockTime = 33 s
Inflow      : 0.0026115051 [kg/s]
Outflow     : 0.0026114327 [kg/s]
EnergyInflow  : 771.60105 [W]
EnergyOutflow : 796.7166 [W]
rho max/avg/min : 1.2016459 1.051251 0.77028255
T   max/avg/min : 458.09478 342.94269 293.69617
P   max/avg/min : 101324.91 101316.15 101307.42
Prg max/avg/min : 101325 101323.84 101318.73
U   max/avg/min : 0.3825903 0.15362105 -0.041819986
Prg max-min : 6.2653321
 
Iteration Number = 49

DILUPBiCG:  Solving for Ux, Initial residual = 0.041552764, Final residual = 2.1674496e-06, No Iterations 3
DILUPBiCG:  Solving for Uz, Initial residual = 0.020213835, Final residual = 5.0377312e-07, No Iterations 3
DILUPBiCG:  Solving for h, Initial residual = 0.0047801046, Final residual = 2.7926557e-07, No Iterations 9
DICPCG:  Solving for p_rgh, Initial residual = 0.030049695, Final residual = 2.9830811e-06, No Iterations 93
time step continuity errors : sum local = 9.5893315e-05, global = -1.5910106e-06, cumulative = -4.2012504e-05
ExecutionTime = 33.47 s  ClockTime = 34 s
Inflow      : 0.0027796948 [kg/s]
Outflow     : 0.0027796011 [kg/s]
EnergyInflow  : 821.29475 [W]
EnergyOutflow : 847.59018 [W]
rho max/avg/min : 1.2016458 1.050349 0.76821647
T   max/avg/min : 459.32679 343.36473 293.69572
P   max/avg/min : 101324.91 101316.15 101307.41
Prg max/avg/min : 101325 101323.83 101318.69
U   max/avg/min : 0.39783626 0.15891891 -0.035546792
Prg max-min : 6.3042765
 
Iteration Number = 50

DILUPBiCG:  Solving for Ux, Initial residual = 0.041082457, Final residual = 3.1441019e-07, No Iterations 4
DILUPBiCG:  Solving for Uz, Initial residual = 0.020622027, Final residual = 5.3967636e-07, No Iterations 3
DILUPBiCG:  Solving for h, Initial residual = 0.0045803462, Final residual = 1.4866075e-07, No Iterations 9
DICPCG:  Solving for p_rgh, Initial residual = 0.038583357, Final residual = 3.2251733e-06, No Iterations 93
time step continuity errors : sum local = 9.89001e-05, global = -1.3379544e-06, cumulative = -4.3350458e-05
ExecutionTime = 34.25 s  ClockTime = 34 s
Inflow      : 0.0029516531 [kg/s]
Outflow     : 0.0029515743 [kg/s]
EnergyInflow  : 872.10193 [W]
EnergyOutflow : 899.54007 [W]
rho max/avg/min : 1.2016458 1.0494989 0.76615661
T   max/avg/min : 460.56168 343.7706 293.69523
P   max/avg/min : 101324.91 101316.15 101307.41
Prg max/avg/min : 101325 101323.82 101318.66
U   max/avg/min : 0.41322891 0.16420151 -0.027089468
Prg max-min : 6.3395786
 
Iteration Number = 51

DILUPBiCG:  Solving for Ux, Initial residual = 0.041284888, Final residual = 3.8854039e-06, No Iterations 3
DILUPBiCG:  Solving for Uz, Initial residual = 0.019121846, Final residual = 4.9625765e-07, No Iterations 3
DILUPBiCG:  Solving for h, Initial residual = 0.0046660799, Final residual = 3.7831849e-07, No Iterations 8
DICPCG:  Solving for p_rgh, Initial residual = 0.027443201, Final residual = 2.5012347e-06, No Iterations 94
time step continuity errors : sum local = 7.3270084e-05, global = 1.496351e-06, cumulative = -4.1854107e-05
ExecutionTime = 34.95 s  ClockTime = 35 s
Inflow      : 0.0030926684 [kg/s]
Outflow     : 0.0030927566 [kg/s]
EnergyInflow  : 913.76661 [W]
EnergyOutflow : 942.26369 [W]
rho max/avg/min : 1.2016458 1.0487939 0.76581574
T   max/avg/min : 460.76665 344.10716 293.69475
P   max/avg/min : 101324.91 101316.15 101307.41
Prg max/avg/min : 101325 101323.82 101318.66
U   max/avg/min : 0.42865905 0.16925023 -0.016648578
Prg max-min : 6.3414792
 
Iteration Number = 52

DILUPBiCG:  Solving for Ux, Initial residual = 0.041548539, Final residual = 2.043671e-07, No Iterations 4
DILUPBiCG:  Solving for Uz, Initial residual = 0.016938803, Final residual = 4.4549873e-07, No Iterations 3
DILUPBiCG:  Solving for h, Initial residual = 0.0036737973, Final residual = 2.3467464e-07, No Iterations 8
DICPCG:  Solving for p_rgh, Initial residual = 0.023859212, Final residual = 1.7444356e-06, No Iterations 95
time step continuity errors : sum local = 4.97007e-05, global = 4.4222327e-07, cumulative = -4.1411884e-05
ExecutionTime = 35.67 s  ClockTime = 36 s
Inflow      : 0.0032240047 [kg/s]
Outflow     : 0.0032240308 [kg/s]
EnergyInflow  : 952.57153 [W]
EnergyOutflow : 981.92739 [W]
rho max/avg/min : 1.2016458 1.0481298 0.76470949
T   max/avg/min : 461.43322 344.43155 293.69427
P   max/avg/min : 101324.91 101316.15 101307.4
Prg max/avg/min : 101325 101323.81 101318.63
U   max/avg/min : 0.44414669 0.17417829 -0.003543952
Prg max-min : 6.3679404
 
Iteration Number = 53

DILUPBiCG:  Solving for Ux, Initial residual = 0.039930698, Final residual = 1.8160801e-06, No Iterations 3
DILUPBiCG:  Solving for Uz, Initial residual = 0.016908968, Final residual = 4.4533209e-07, No Iterations 3
DILUPBiCG:  Solving for h, Initial residual = 0.003509179, Final residual = 2.6080416e-07, No Iterations 8
DICPCG:  Solving for p_rgh, Initial residual = 0.019537326, Final residual = 1.5113252e-06, No Iterations 95
time step continuity errors : sum local = 4.1963238e-05, global = 1.7717673e-08, cumulative = -4.1394166e-05
ExecutionTime = 36.46 s  ClockTime = 37 s
Inflow      : 0.0033464766 [kg/s]
Outflow     : 0.0033464776 [kg/s]
EnergyInflow  : 988.75734 [W]
EnergyOutflow : 1018.8548 [W]
rho max/avg/min : 1.2016458 1.0475046 0.76339203
T   max/avg/min : 462.22952 344.74279 293.69376
P   max/avg/min : 101324.91 101316.15 101307.4
Prg max/avg/min : 101325 101323.8 101318.61
U   max/avg/min : 0.4597202 0.17899303 0
Prg max-min : 6.3833141
 
Iteration Number = 54

DILUPBiCG:  Solving for Ux, Initial residual = 0.039993985, Final residual = 1.9190589e-06, No Iterations 3
DILUPBiCG:  Solving for Uz, Initial residual = 0.015081421, Final residual = 3.8201342e-07, No Iterations 3
DILUPBiCG:  Solving for h, Initial residual = 0.0033474938, Final residual = 1.2114453e-07, No Iterations 8
DICPCG:  Solving for p_rgh, Initial residual = 0.013462001, Final residual = 1.0309667e-06, No Iterations 96
time step continuity errors : sum local = 2.7753499e-05, global = 2.2159832e-07, cumulative = -4.1172568e-05
ExecutionTime = 37.17 s  ClockTime = 37 s
Inflow      : 0.0034459395 [kg/s]
Outflow     : 0.0034459525 [kg/s]
EnergyInflow  : 1018.1449 [W]
EnergyOutflow : 1048.8524 [W]
rho max/avg/min : 1.2016458 1.0469134 0.76197987
T   max/avg/min : 463.08617 345.04198 293.69326
P   max/avg/min : 101324.91 101316.15 101307.4
Prg max/avg/min : 101325 101323.8 101318.59
U   max/avg/min : 0.47537262 0.18360014 0
Prg max-min : 6.4085707
 
Iteration Number = 55

DILUPBiCG:  Solving for Ux, Initial residual = 0.038000897, Final residual = 2.3073466e-06, No Iterations 3
DILUPBiCG:  Solving for Uz, Initial residual = 0.01408884, Final residual = 3.8525363e-07, No Iterations 3
DILUPBiCG:  Solving for h, Initial residual = 0.0031943262, Final residual = 2.0543869e-07, No Iterations 8
DICPCG:  Solving for p_rgh, Initial residual = 0.011453015, Final residual = 1.0209306e-06, No Iterations 95
time step continuity errors : sum local = 2.7035343e-05, global = -2.190329e-07, cumulative = -4.1391601e-05
ExecutionTime = 37.82 s  ClockTime = 38 s
Inflow      : 0.0035342738 [kg/s]
Outflow     : 0.0035342609 [kg/s]
EnergyInflow  : 1044.2443 [W]
EnergyOutflow : 1075.444 [W]
rho max/avg/min : 1.2016458 1.046352 0.76051579
T   max/avg/min : 463.97764 345.33014 293.69274
P   max/avg/min : 101324.91 101316.15 101307.4
Prg max/avg/min : 101325 101323.79 101318.57
U   max/avg/min : 0.49109396 0.18806248 0
Prg max-min : 6.4272267
 
Iteration Number = 56

DILUPBiCG:  Solving for Ux, Initial residual = 0.038343519, Final residual = 2.060532e-06, No Iterations 3
DILUPBiCG:  Solving for Uz, Initial residual = 0.013190305, Final residual = 3.7261844e-07, No Iterations 3
DILUPBiCG:  Solving for h, Initial residual = 0.003047977, Final residual = 8.6161184e-08, No Iterations 8
DICPCG:  Solving for p_rgh, Initial residual = 0.010483422, Final residual = 7.3432967e-07, No Iterations 97
time step continuity errors : sum local = 1.9214186e-05, global = -5.0353348e-08, cumulative = -4.1441954e-05
ExecutionTime = 38.46 s  ClockTime = 39 s
Inflow      : 0.0036086468 [kg/s]
Outflow     : 0.0036086438 [kg/s]
EnergyInflow  : 1066.2187 [W]
EnergyOutflow : 1097.8397 [W]
rho max/avg/min : 1.2016458 1.0458177 0.75902125
T   max/avg/min : 464.89125 345.60797 293.6922
P   max/avg/min : 101324.91 101316.15 101307.4
Prg max/avg/min : 101325 101323.79 101318.55
U   max/avg/min : 0.50676756 0.19235478 0
Prg max-min : 6.4512441
 
Iteration Number = 57

DILUPBiCG:  Solving for Ux, Initial residual = 0.036470489, Final residual = 1.9445488e-06, No Iterations 3
DILUPBiCG:  Solving for Uz, Initial residual = 0.012081012, Final residual = 4.235367e-07, No Iterations 3
DILUPBiCG:  Solving for h, Initial residual = 0.0029109636, Final residual = 8.6443039e-08, No Iterations 8
DICPCG:  Solving for p_rgh, Initial residual = 0.009762869, Final residual = 8.2822654e-07, No Iterations 97
time step continuity errors : sum local = 2.14591e-05, global = 6.4381432e-09, cumulative = -4.1435516e-05
ExecutionTime = 39.17 s  ClockTime = 39 s
Inflow      : 0.003679277 [kg/s]
Outflow     : 0.0036792773 [kg/s]
EnergyInflow  : 1087.0873 [W]
EnergyOutflow : 1119.0851 [W]
rho max/avg/min : 1.2016458 1.0453082 0.75750921
T   max/avg/min : 465.81919 345.87611 293.69167
P   max/avg/min : 101324.91 101316.15 101307.39
Prg max/avg/min : 101325 101323.78 101318.52
U   max/avg/min : 0.52239249 0.19653714 0
Prg max-min : 6.473423
 
Iteration Number = 58

DILUPBiCG:  Solving for Ux, Initial residual = 0.036140672, Final residual = 2.0010765e-06, No Iterations 3
DILUPBiCG:  Solving for Uz, Initial residual = 0.011949968, Final residual = 4.1041424e-07, No Iterations 3
DILUPBiCG:  Solving for h, Initial residual = 0.0027824936, Final residual = 1.5461586e-07, No Iterations 7
DICPCG:  Solving for p_rgh, Initial residual = 0.0092721074, Final residual = 7.7123211e-07, No Iterations 97
time step continuity errors : sum local = 1.9843397e-05, global = -1.7735987e-08, cumulative = -4.1453252e-05
ExecutionTime = 39.93 s  ClockTime = 40 s
Inflow      : 0.0037394232 [kg/s]
Outflow     : 0.0037394222 [kg/s]
EnergyInflow  : 1104.8582 [W]
EnergyOutflow : 1137.2099 [W]
rho max/avg/min : 1.2016458 1.0448223 0.75598798
T   max/avg/min : 466.75652 346.13494 293.69112
P   max/avg/min : 101324.91 101316.15 101307.4
Prg max/avg/min : 101325 101323.78 101318.5
U   max/avg/min : 0.53792787 0.20056759 0
Prg max-min : 6.4939152
 
Iteration Number = 59

DILUPBiCG:  Solving for Ux, Initial residual = 0.034490948, Final residual = 1.5668997e-06, No Iterations 3
DILUPBiCG:  Solving for Uz, Initial residual = 0.010553346, Final residual = 8.1289087e-07, No Iterations 3
DILUPBiCG:  Solving for h, Initial residual = 0.0026651533, Final residual = 1.2908182e-07, No Iterations 7
DICPCG:  Solving for p_rgh, Initial residual = 0.0088830392, Final residual = 8.1275414e-07, No Iterations 97
time step continuity errors : sum local = 2.0751671e-05, global = -3.6519138e-08, cumulative = -4.1489771e-05
ExecutionTime = 40.55 s  ClockTime = 41 s
Inflow      : 0.0037931862 [kg/s]
Outflow     : 0.003793184 [kg/s]
EnergyInflow  : 1120.7431 [W]
EnergyOutflow : 1153.4487 [W]
rho max/avg/min : 1.2016458 1.0443589 0.75446395
T   max/avg/min : 467.69939 346.38486 293.69059
P   max/avg/min : 101324.91 101316.15 101307.39
Prg max/avg/min : 101325 101323.77 101318.48
U   max/avg/min : 0.55333035 0.20446883 0
Prg max-min : 6.5171229
 
Iteration Number = 60

DILUPBiCG:  Solving for Ux, Initial residual = 0.034126501, Final residual = 7.4531561e-08, No Iterations 4
DILUPBiCG:  Solving for Uz, Initial residual = 0.010674571, Final residual = 7.1606697e-07, No Iterations 3
DILUPBiCG:  Solving for h, Initial residual = 0.0025578632, Final residual = 1.3461384e-07, No Iterations 7
DICPCG:  Solving for p_rgh, Initial residual = 0.008551328, Final residual = 7.0201366e-07, No Iterations 97
time step continuity errors : sum local = 1.7850629e-05, global = -1.8567461e-07, cumulative = -4.1675446e-05
ExecutionTime = 41.29 s  ClockTime = 41 s
Inflow      : 0.0038416019 [kg/s]
Outflow     : 0.0038415909 [kg/s]
EnergyInflow  : 1135.0481 [W]
EnergyOutflow : 1168.1121 [W]
rho max/avg/min : 1.2016458 1.0439167 0.75294136
T   max/avg/min : 468.64516 346.6262 293.69004
P   max/avg/min : 101324.91 101316.15 101307.4
Prg max/avg/min : 101325 101323.77 101318.46
U   max/avg/min : 0.56852827 0.20825274 0
Prg max-min : 6.537821
 
Iteration Number = 61

DILUPBiCG:  Solving for Ux, Initial residual = 0.032533455, Final residual = 1.7621137e-06, No Iterations 3
DILUPBiCG:  Solving for Uz, Initial residual = 0.0095278846, Final residual = 1.5395615e-08, No Iterations 4
DILUPBiCG:  Solving for h, Initial residual = 0.0026402476, Final residual = 1.5837067e-08, No Iterations 9
DICPCG:  Solving for p_rgh, Initial residual = 0.0083359674, Final residual = 6.6109228e-07, No Iterations 97
time step continuity errors : sum local = 1.6704297e-05, global = -1.4141215e-07, cumulative = -4.1816858e-05
ExecutionTime = 41.94 s  ClockTime = 42 s
Inflow      : 0.0038813416 [kg/s]
Outflow     : 0.0038813333 [kg/s]
EnergyInflow  : 1146.7897 [W]
EnergyOutflow : 1180.2224 [W]
rho max/avg/min : 1.2016458 1.0435635 0.75285845
T   max/avg/min : 468.69678 346.81993 293.68951
P   max/avg/min : 101324.91 101316.15 101307.4
Prg max/avg/min : 101325 101323.77 101318.46
U   max/avg/min : 0.58352834 0.21189571 0
Prg max-min : 6.5379763
 
Iteration Number = 62

DILUPBiCG:  Solving for Ux, Initial residual = 0.03117672, Final residual = 5.4180898e-08, No Iterations 4
DILUPBiCG:  Solving for Uz, Initial residual = 0.0094181076, Final residual = 6.5893142e-07, No Iterations 3
DILUPBiCG:  Solving for h, Initial residual = 0.0020438843, Final residual = 1.7453753e-07, No Iterations 7
DICPCG:  Solving for p_rgh, Initial residual = 0.0080128612, Final residual = 5.9868543e-07, No Iterations 97
time step continuity errors : sum local = 1.507888e-05, global = -2.1635198e-07, cumulative = -4.203321e-05
ExecutionTime = 42.58 s  ClockTime = 43 s
Inflow      : 0.0039182674 [kg/s]
Outflow     : 0.0039182547 [kg/s]
EnergyInflow  : 1157.6999 [W]
EnergyOutflow : 1191.5054 [W]
rho max/avg/min : 1.2016458 1.0432291 0.75213364
T   max/avg/min : 469.14845 347.00684 293.68897
P   max/avg/min : 101324.91 101316.15 101307.4
Prg max/avg/min : 101325 101323.77 101318.45
U   max/avg/min : 0.59832402 0.21544108 0
Prg max-min : 6.5493325
 
Iteration Number = 63

DILUPBiCG:  Solving for Ux, Initial residual = 0.030269915, Final residual = 7.1624479e-08, No Iterations 4
DILUPBiCG:  Solving for Uz, Initial residual = 0.0087529688, Final residual = 4.9680877e-07, No Iterations 3
DILUPBiCG:  Solving for h, Initial residual = 0.0019652474, Final residual = 9.8803711e-09, No Iterations 9
DICPCG:  Solving for p_rgh, Initial residual = 0.0077499744, Final residual = 6.3337708e-07, No Iterations 96
time step continuity errors : sum local = 1.5878334e-05, global = -2.3612683e-07, cumulative = -4.2269336e-05
ExecutionTime = 43.24 s  ClockTime = 43 s
Inflow      : 0.0039481416 [kg/s]
Outflow     : 0.0039481277 [kg/s]
EnergyInflow  : 1166.5266 [W]
EnergyOutflow : 1200.7072 [W]
rho max/avg/min : 1.2016458 1.0429153 0.75123041
T   max/avg/min : 469.71253 347.18558 293.68846
P   max/avg/min : 101324.91 101316.15 101307.4
Prg max/avg/min : 101325 101323.76 101318.44
U   max/avg/min : 0.61284818 0.21886122 0
Prg max-min : 6.5593961
 
Iteration Number = 64

DILUPBiCG:  Solving for Ux, Initial residual = 0.028732286, Final residual = 1.2059223e-06, No Iterations 3
DILUPBiCG:  Solving for Uz, Initial residual = 0.0084089241, Final residual = 4.5246479e-07, No Iterations 3
DILUPBiCG:  Solving for h, Initial residual = 0.0018950783, Final residual = 1.8565704e-07, No Iterations 7
DICPCG:  Solving for p_rgh, Initial residual = 0.0074818069, Final residual = 6.7168717e-07, No Iterations 96
time step continuity errors : sum local = 1.6782676e-05, global = -1.6213252e-07, cumulative = -4.2431469e-05
ExecutionTime = 43.85 s  ClockTime = 44 s
Inflow      : 0.0039758923 [kg/s]
Outflow     : 0.0039758828 [kg/s]
EnergyInflow  : 1174.7259 [W]
EnergyOutflow : 1209.2825 [W]
rho max/avg/min : 1.2016458 1.0426212 0.7502463
T   max/avg/min : 470.32867 347.35632 293.68795
P   max/avg/min : 101324.91 101316.15 101307.4
Prg max/avg/min : 101325 101323.76 101318.42
U   max/avg/min : 0.62711085 0.22219197 0
Prg max-min : 6.5767116
 
Iteration Number = 65

DILUPBiCG:  Solving for Ux, Initial residual = 0.027946791, Final residual = 5.3289141e-08, No Iterations 4
DILUPBiCG:  Solving for Uz, Initial residual = 0.0080911455, Final residual = 5.1926223e-07, No Iterations 3
DILUPBiCG:  Solving for h, Initial residual = 0.0018296539, Final residual = 3.9201825e-08, No Iterations 8
DICPCG:  Solving for p_rgh, Initial residual = 0.00726058, Final residual = 7.0920805e-07, No Iterations 96
time step continuity errors : sum local = 1.7664507e-05, global = 1.1024788e-07, cumulative = -4.2321221e-05
ExecutionTime = 44.52 s  ClockTime = 45 s
Inflow      : 0.0039999037 [kg/s]
Outflow     : 0.0039999102 [kg/s]
EnergyInflow  : 1181.8203 [W]
EnergyOutflow : 1216.7519 [W]
rho max/avg/min : 1.2016458 1.0423455 0.74921744
T   max/avg/min : 470.97453 347.51942 293.68747
P   max/avg/min : 101324.91 101316.15 101307.4
Prg max/avg/min : 101325 101323.76 101318.41
U   max/avg/min : 0.64120704 0.22542446 0
Prg max-min : 6.5877548
 
Iteration Number = 66

DILUPBiCG:  Solving for Ux, Initial residual = 0.026668259, Final residual = 1.6632689e-06, No Iterations 3
DILUPBiCG:  Solving for Uz, Initial residual = 0.0076951262, Final residual = 5.2305877e-07, No Iterations 3
DILUPBiCG:  Solving for h, Initial residual = 0.0017688995, Final residual = 1.3582436e-07, No Iterations 7
DICPCG:  Solving for p_rgh, Initial residual = 0.0070107313, Final residual = 6.5485463e-07, No Iterations 96
time step continuity errors : sum local = 1.6256547e-05, global = 1.7661911e-07, cumulative = -4.2144602e-05
ExecutionTime = 45.18 s  ClockTime = 45 s
Inflow      : 0.0040213224 [kg/s]
Outflow     : 0.0040213328 [kg/s]
EnergyInflow  : 1188.1488 [W]
EnergyOutflow : 1223.4452 [W]
rho max/avg/min : 1.2016458 1.0420873 0.74816191
T   max/avg/min : 471.63902 347.67528 293.68702
P   max/avg/min : 101324.91 101316.15 101307.4
Prg max/avg/min : 101325 101323.76 101318.39
U   max/avg/min : 0.65502705 0.22856833 0
Prg max-min : 6.6066036
 
Iteration Number = 67

DILUPBiCG:  Solving for Ux, Initial residual = 0.025915803, Final residual = 1.3950521e-06, No Iterations 3
DILUPBiCG:  Solving for Uz, Initial residual = 0.0074697142, Final residual = 4.7890892e-07, No Iterations 3
DILUPBiCG:  Solving for h, Initial residual = 0.0017120385, Final residual = 9.7730527e-08, No Iterations 7
DICPCG:  Solving for p_rgh, Initial residual = 0.006774929, Final residual = 6.0835591e-07, No Iterations 96
time step continuity errors : sum local = 1.5061474e-05, global = 2.1918319e-07, cumulative = -4.1925419e-05
ExecutionTime = 45.78 s  ClockTime = 46 s
Inflow      : 0.0040411182 [kg/s]
Outflow     : 0.0040411311 [kg/s]
EnergyInflow  : 1193.9977 [W]
EnergyOutflow : 1229.6505 [W]
rho max/avg/min : 1.2016458 1.0418453 0.74709087
T   max/avg/min : 472.31515 347.82428 293.68658
P   max/avg/min : 101324.91 101316.15 101307.4
Prg max/avg/min : 101325 101323.75 101318.38
U   max/avg/min : 0.66857082 0.2316324 0
Prg max-min : 6.6187214
 
Iteration Number = 68

DILUPBiCG:  Solving for Ux, Initial residual = 0.024822595, Final residual = 5.0776642e-07, No Iterations 4
DILUPBiCG:  Solving for Uz, Initial residual = 0.007162789, Final residual = 4.0828734e-07, No Iterations 3
DILUPBiCG:  Solving for h, Initial residual = 0.0016586304, Final residual = 2.5713472e-08, No Iterations 8
DICPCG:  Solving for p_rgh, Initial residual = 0.0066030744, Final residual = 6.4525194e-07, No Iterations 96
time step continuity errors : sum local = 1.5931923e-05, global = -1.84271e-08, cumulative = -4.1943846e-05
ExecutionTime = 46.51 s  ClockTime = 47 s
Inflow      : 0.0040588647 [kg/s]
Outflow     : 0.0040588637 [kg/s]
EnergyInflow  : 1199.2411 [W]
EnergyOutflow : 1235.2362 [W]
rho max/avg/min : 1.2016458 1.0416185 0.74601154
T   max/avg/min : 472.99851 347.9668 293.68619
P   max/avg/min : 101324.91 101316.15 101307.4
Prg max/avg/min : 101325 101323.75 101318.36
U   max/avg/min : 0.68182996 0.23461554 0
Prg max-min : 6.6376307
 
Iteration Number = 69

DILUPBiCG:  Solving for Ux, Initial residual = 0.024270738, Final residual = 6.7938382e-08, No Iterations 4
DILUPBiCG:  Solving for Uz, Initial residual = 0.0069384649, Final residual = 4.9355555e-07, No Iterations 3
DILUPBiCG:  Solving for h, Initial residual = 0.0016083253, Final residual = 9.4544151e-08, No Iterations 7
DICPCG:  Solving for p_rgh, Initial residual = 0.0064008658, Final residual = 4.764686e-07, No Iterations 97
time step continuity errors : sum local = 1.1739963e-05, global = -1.3090026e-07, cumulative = -4.2074746e-05
ExecutionTime = 47.31 s  ClockTime = 47 s
Inflow      : 0.0040753698 [kg/s]
Outflow     : 0.0040753621 [kg/s]
EnergyInflow  : 1204.1177 [W]
EnergyOutflow : 1240.447 [W]
rho max/avg/min : 1.2016458 1.0414059 0.74492932
T   max/avg/min : 473.68566 348.10319 293.68595
P   max/avg/min : 101324.91 101316.15 101307.4
Prg max/avg/min : 101325 101323.75 101318.35
U   max/avg/min : 0.69480217 0.23752531 0
Prg max-min : 6.6503619
 
Iteration Number = 70

DILUPBiCG:  Solving for Ux, Initial residual = 0.02334311, Final residual = 1.8837852e-06, No Iterations 3
DILUPBiCG:  Solving for Uz, Initial residual = 0.0066985751, Final residual = 3.3720973e-07, No Iterations 3
DILUPBiCG:  Solving for h, Initial residual = 0.0015606751, Final residual = 2.3700368e-08, No Iterations 8
DICPCG:  Solving for p_rgh, Initial residual = 0.0062076997, Final residual = 5.8621582e-07, No Iterations 68
time step continuity errors : sum local = 1.4406488e-05, global = -4.049007e-07, cumulative = -4.2479647e-05
ExecutionTime = 48.04 s  ClockTime = 48 s
Inflow      : 0.0040912095 [kg/s]
Outflow     : 0.0040911857 [kg/s]
EnergyInflow  : 1208.7978 [W]
EnergyOutflow : 1245.449 [W]
rho max/avg/min : 1.2016458 1.0412065 0.74384786
T   max/avg/min : 474.37435 348.23378 293.68584
P   max/avg/min : 101324.91 101316.15 101307.4
Prg max/avg/min : 101325 101323.75 101318.33
U   max/avg/min : 0.70751076 0.2403676 0
Prg max-min : 6.6695768
 
Iteration Number = 71

DILUPBiCG:  Solving for Ux, Initial residual = 0.022946185, Final residual = 1.402762e-06, No Iterations 3
DILUPBiCG:  Solving for Uz, Initial residual = 0.0065233352, Final residual = 3.0932199e-07, No Iterations 3
DILUPBiCG:  Solving for h, Initial residual = 0.0016362771, Final residual = 6.263735e-08, No Iterations 7
DICPCG:  Solving for p_rgh, Initial residual = 0.0060928186, Final residual = 4.6552052e-07, No Iterations 97
time step continuity errors : sum local = 1.1416215e-05, global = 5.7108341e-08, cumulative = -4.2422539e-05
ExecutionTime = 48.8 s  ClockTime = 49 s
Inflow      : 0.0041053894 [kg/s]
Outflow     : 0.0041053928 [kg/s]
EnergyInflow  : 1212.9874 [W]
EnergyOutflow : 1249.9639 [W]
rho max/avg/min : 1.2016458 1.0410657 0.74391363
T   max/avg/min : 474.3324 348.33157 293.68579
P   max/avg/min : 101324.91 101316.15 101307.4
Prg max/avg/min : 101325 101323.75 101318.33
U   max/avg/min : 0.72008084 0.24313773 0
Prg max-min : 6.665195
 
Iteration Number = 72

DILUPBiCG:  Solving for Ux, Initial residual = 0.022266959, Final residual = 1.9744755e-06, No Iterations 3
DILUPBiCG:  Solving for Uz, Initial residual = 0.0062592898, Final residual = 2.5487202e-07, No Iterations 3
DILUPBiCG:  Solving for h, Initial residual = 0.001257451, Final residual = 2.9090647e-08, No Iterations 8
DICPCG:  Solving for p_rgh, Initial residual = 0.0059250822, Final residual = 4.8415186e-07, No Iterations 97
time step continuity errors : sum local = 1.184554e-05, global = -2.4098088e-09, cumulative = -4.2424948e-05
ExecutionTime = 49.57 s  ClockTime = 50 s
Inflow      : 0.0041191636 [kg/s]
Outflow     : 0.0041191635 [kg/s]
EnergyInflow  : 1217.0571 [W]
EnergyOutflow : 1254.3391 [W]
rho max/avg/min : 1.2016458 1.0409362 0.74347061
T   max/avg/min : 474.61506 348.42491 293.68576
P   max/avg/min : 101324.91 101316.15 101307.4
Prg max/avg/min : 101325 101323.74 101318.32
U   max/avg/min : 0.73236155 0.24584517 0
Prg max-min : 6.6754117
 
Iteration Number = 73

DILUPBiCG:  Solving for Ux, Initial residual = 0.021516156, Final residual = 1.110229e-06, No Iterations 3
DILUPBiCG:  Solving for Uz, Initial residual = 0.0061564762, Final residual = 2.632225e-07, No Iterations 3
DILUPBiCG:  Solving for h, Initial residual = 0.0012158838, Final residual = 9.966439e-08, No Iterations 7
DICPCG:  Solving for p_rgh, Initial residual = 0.0057781146, Final residual = 4.6802439e-07, No Iterations 97
time step continuity errors : sum local = 1.1429334e-05, global = 1.5752856e-07, cumulative = -4.226742e-05
ExecutionTime = 50.18 s  ClockTime = 50 s
Inflow      : 0.0041317483 [kg/s]
Outflow     : 0.0041317575 [kg/s]
EnergyInflow  : 1220.7754 [W]
EnergyOutflow : 1258.3553 [W]
rho max/avg/min : 1.2016458 1.0408188 0.74288701
T   max/avg/min : 474.98789 348.51291 293.68576
P   max/avg/min : 101324.91 101316.15 101307.4
Prg max/avg/min : 101325 101323.74 101318.32
U   max/avg/min : 0.74435397 0.24848713 0
Prg max-min : 6.6803784
 
Iteration Number = 74

DILUPBiCG:  Solving for Ux, Initial residual = 0.021260673, Final residual = 1.4552492e-06, No Iterations 3
DILUPBiCG:  Solving for Uz, Initial residual = 0.005880369, Final residual = 2.1036914e-07, No Iterations 3
DILUPBiCG:  Solving for h, Initial residual = 0.0011792944, Final residual = 2.6891235e-08, No Iterations 8
DICPCG:  Solving for p_rgh, Initial residual = 0.0056357224, Final residual = 4.8491058e-07, No Iterations 96
time step continuity errors : sum local = 1.181178e-05, global = -1.1885958e-07, cumulative = -4.2386279e-05
ExecutionTime = 50.77 s  ClockTime = 51 s
Inflow      : 0.004143898 [kg/s]
Outflow     : 0.004143891 [kg/s]
EnergyInflow  : 1224.3652 [W]
EnergyOutflow : 1262.2254 [W]
rho max/avg/min : 1.2016458 1.0407129 0.74224029
T   max/avg/min : 475.40177 348.59571 293.68576
P   max/avg/min : 101324.91 101316.15 101307.4
Prg max/avg/min : 101325 101323.74 101318.3
U   max/avg/min : 0.75649403 0.25106953 0
Prg max-min : 6.6937316
 
Iteration Number = 75

DILUPBiCG:  Solving for Ux, Initial residual = 0.020831238, Final residual = 9.8605443e-07, No Iterations 3
DILUPBiCG:  Solving for Uz, Initial residual = 0.0058165279, Final residual = 2.1829532e-07, No Iterations 3
DILUPBiCG:  Solving for h, Initial residual = 0.0011445747, Final residual = 1.7223066e-08, No Iterations 8
DICPCG:  Solving for p_rgh, Initial residual = 0.0054814992, Final residual = 4.3483949e-07, No Iterations 97
time step continuity errors : sum local = 1.057039e-05, global = 1.0314005e-07, cumulative = -4.2283139e-05
ExecutionTime = 51.4 s  ClockTime = 52 s
Inflow      : 0.0041550498 [kg/s]
Outflow     : 0.0041550558 [kg/s]
EnergyInflow  : 1227.6601 [W]
EnergyOutflow : 1265.7998 [W]
rho max/avg/min : 1.2016458 1.0406179 0.74155916
T   max/avg/min : 475.83841 348.67358 293.68576
P   max/avg/min : 101324.91 101316.15 101307.4
Prg max/avg/min : 101325 101323.74 101318.3
U   max/avg/min : 0.76887886 0.2535913 0
Prg max-min : 6.700235
 
Iteration Number = 76

DILUPBiCG:  Solving for Ux, Initial residual = 0.021025991, Final residual = 1.4770772e-06, No Iterations 3
DILUPBiCG:  Solving for Uz, Initial residual = 0.005542062, Final residual = 1.4897519e-07, No Iterations 3
DILUPBiCG:  Solving for h, Initial residual = 0.0011116611, Final residual = 2.2665318e-08, No Iterations 8
DICPCG:  Solving for p_rgh, Initial residual = 0.0053470611, Final residual = 4.3205781e-07, No Iterations 97
time step continuity errors : sum local = 1.0481298e-05, global = 1.5990529e-07, cumulative = -4.2123234e-05
ExecutionTime = 52.03 s  ClockTime = 52 s
Inflow      : 0.0041658987 [kg/s]
Outflow     : 0.0041659082 [kg/s]
EnergyInflow  : 1230.8656 [W]
EnergyOutflow : 1269.272 [W]
rho max/avg/min : 1.2016458 1.0405329 0.74085809
T   max/avg/min : 476.28871 348.74679 293.68577
P   max/avg/min : 101324.91 101316.15 101307.4
Prg max/avg/min : 101325 101323.74 101318.28
U   max/avg/min : 0.78102605 0.2560574 0
Prg max-min : 6.7144134
 
Iteration Number = 77

DILUPBiCG:  Solving for Ux, Initial residual = 0.020358867, Final residual = 1.1947414e-06, No Iterations 3
DILUPBiCG:  Solving for Uz, Initial residual = 0.0055099043, Final residual = 1.8690866e-07, No Iterations 3
DILUPBiCG:  Solving for h, Initial residual = 0.0010803581, Final residual = 4.7188163e-08, No Iterations 7
DICPCG:  Solving for p_rgh, Initial residual = 0.0052298922, Final residual = 4.1856858e-07, No Iterations 97
time step continuity errors : sum local = 1.0138842e-05, global = -1.4650938e-09, cumulative = -4.2124699e-05
ExecutionTime = 52.64 s  ClockTime = 53 s
Inflow      : 0.0041757212 [kg/s]
Outflow     : 0.0041757211 [kg/s]
EnergyInflow  : 1233.7678 [W]
EnergyOutflow : 1272.4266 [W]
rho max/avg/min : 1.2016458 1.0404573 0.74014578
T   max/avg/min : 476.74707 348.81561 293.68577
P   max/avg/min : 101324.91 101316.16 101307.4
Prg max/avg/min : 101325 101323.74 101318.28
U   max/avg/min : 0.79295346 0.25846533 0
Prg max-min : 6.7212515
 
Iteration Number = 78

DILUPBiCG:  Solving for Ux, Initial residual = 0.020436314, Final residual = 1.608264e-06, No Iterations 3
DILUPBiCG:  Solving for Uz, Initial residual = 0.005229766, Final residual = 1.1514237e-07, No Iterations 3
DILUPBiCG:  Solving for h, Initial residual = 0.0010506073, Final residual = 6.8044181e-08, No Iterations 7
DICPCG:  Solving for p_rgh, Initial residual = 0.0051255274, Final residual = 4.2072745e-07, No Iterations 97
time step continuity errors : sum local = 1.0168167e-05, global = 1.0141622e-07, cumulative = -4.2023283e-05
ExecutionTime = 53.28 s  ClockTime = 53 s
Inflow      : 0.0041852255 [kg/s]
Outflow     : 0.0041852315 [kg/s]
EnergyInflow  : 1236.5759 [W]
EnergyOutflow : 1275.4817 [W]
rho max/avg/min : 1.2016458 1.0403903 0.73942817
T   max/avg/min : 477.20977 348.88029 293.68578
[...]
DILUPBiCG:  Solving for Uz, Initial residual = 0.0001510833, Final residual = 2.3731943e-09, No Iterations 3
DILUPBiCG:  Solving for h, Initial residual = 9.8987216e-06, Final residual = 5.0312571e-10, No Iterations 11
DICPCG:  Solving for p_rgh, Initial residual = 0.0081571245, Final residual = 6.7427676e-07, No Iterations 99
time step continuity errors : sum local = 8.3450237e-06, global = -6.4175824e-08, cumulative = -8.2033978e-05
ExecutionTime = 1408.92 s  ClockTime = 1410 s
Inflow      : 0.011816631 [kg/s]
Outflow     : 0.011816628 [kg/s]
EnergyInflow  : 3491.3679 [W]
EnergyOutflow : 3534.7669 [W]
rho max/avg/min : 1.2016455 1.0554174 0.74629898
T   max/avg/min : 472.81607 343.59745 293.68536
P   max/avg/min : 101324.88 101316.12 101307.37
Prg max/avg/min : 101324.97 101323.81 101318.31
U   max/avg/min : 1.5491309 0.47894522 0
Prg max-min : 6.6574881
 
Iteration Number = 1982

DILUPBiCG:  Solving for Ux, Initial residual = 0.045413458, Final residual = 6.8853417e-07, No Iterations 3
DILUPBiCG:  Solving for Uz, Initial residual = 0.00015235726, Final residual = 4.5241789e-09, No Iterations 3
DILUPBiCG:  Solving for h, Initial residual = 9.8120539e-06, Final residual = 8.7154888e-10, No Iterations 10
DICPCG:  Solving for p_rgh, Initial residual = 0.008156844, Final residual = 6.7021e-07, No Iterations 99
time step continuity errors : sum local = 8.2945774e-06, global = 8.7773034e-08, cumulative = -8.1946205e-05
ExecutionTime = 1409.59 s  ClockTime = 1411 s
Inflow      : 0.011819299 [kg/s]
Outflow     : 0.011819304 [kg/s]
EnergyInflow  : 3492.1561 [W]
EnergyOutflow : 3535.5579 [W]
rho max/avg/min : 1.2016455 1.0554182 0.74629913
T   max/avg/min : 472.81598 343.59715 293.68536
P   max/avg/min : 101324.88 101316.12 101307.37
Prg max/avg/min : 101324.97 101323.81 101318.31
U   max/avg/min : 1.5491399 0.47897601 0
Prg max-min : 6.6578692
 
Iteration Number = 1983

DILUPBiCG:  Solving for Ux, Initial residual = 0.045396224, Final residual = 7.263403e-07, No Iterations 3
DILUPBiCG:  Solving for Uz, Initial residual = 0.00015060882, Final residual = 2.3777619e-09, No Iterations 3
DILUPBiCG:  Solving for h, Initial residual = 9.7987876e-06, Final residual = 3.8837359e-10, No Iterations 11
DICPCG:  Solving for p_rgh, Initial residual = 0.0081595145, Final residual = 6.8764453e-07, No Iterations 99
time step continuity errors : sum local = 8.5086187e-06, global = -7.339571e-08, cumulative = -8.2019601e-05
ExecutionTime = 1410.21 s  ClockTime = 1411 s
Inflow      : 0.011821997 [kg/s]
Outflow     : 0.011821993 [kg/s]
EnergyInflow  : 3492.9534 [W]
EnergyOutflow : 3536.3525 [W]
rho max/avg/min : 1.2016455 1.0554191 0.74629933
T   max/avg/min : 472.81585 343.59684 293.68536
P   max/avg/min : 101324.88 101316.12 101307.37
Prg max/avg/min : 101324.97 101323.81 101318.31
U   max/avg/min : 1.5491372 0.47900687 0
Prg max-min : 6.6574846
 
Iteration Number = 1984

DILUPBiCG:  Solving for Ux, Initial residual = 0.045453083, Final residual = 6.9328114e-07, No Iterations 3
DILUPBiCG:  Solving for Uz, Initial residual = 0.00015254478, Final residual = 4.5172764e-09, No Iterations 3
DILUPBiCG:  Solving for h, Initial residual = 9.7976606e-06, Final residual = 9.7857812e-10, No Iterations 10
DICPCG:  Solving for p_rgh, Initial residual = 0.008156303, Final residual = 6.974596e-07, No Iterations 99
time step continuity errors : sum local = 8.629759e-06, global = 6.9861894e-08, cumulative = -8.1949739e-05
ExecutionTime = 1410.88 s  ClockTime = 1412 s
Inflow      : 0.011824679 [kg/s]
Outflow     : 0.011824683 [kg/s]
EnergyInflow  : 3493.7456 [W]
EnergyOutflow : 3537.1473 [W]
rho max/avg/min : 1.2016455 1.05542 0.74629952
T   max/avg/min : 472.81573 343.59653 293.68536
P   max/avg/min : 101324.88 101316.12 101307.37
Prg max/avg/min : 101324.97 101323.81 101318.31
U   max/avg/min : 1.5491461 0.47903778 0
Prg max-min : 6.6578567
 
Iteration Number = 1985

DILUPBiCG:  Solving for Ux, Initial residual = 0.045397959, Final residual = 7.2363327e-07, No Iterations 3
DILUPBiCG:  Solving for Uz, Initial residual = 0.00015077682, Final residual = 2.3695769e-09, No Iterations 3
DILUPBiCG:  Solving for h, Initial residual = 9.7893931e-06, Final residual = 2.8500854e-10, No Iterations 11
DICPCG:  Solving for p_rgh, Initial residual = 0.0081598132, Final residual = 7.0419128e-07, No Iterations 99
time step continuity errors : sum local = 8.7119595e-06, global = -7.9022834e-08, cumulative = -8.2028762e-05
ExecutionTime = 1411.5 s  ClockTime = 1413 s
Inflow      : 0.011827355 [kg/s]
Outflow     : 0.01182735 [kg/s]
EnergyInflow  : 3494.5364 [W]
EnergyOutflow : 3537.9357 [W]
rho max/avg/min : 1.2016455 1.0554209 0.74629975
T   max/avg/min : 472.81559 343.59622 293.68536
P   max/avg/min : 101324.88 101316.12 101307.37
Prg max/avg/min : 101324.97 101323.81 101318.31
U   max/avg/min : 1.5491435 0.47906845 0
Prg max-min : 6.6574824
 
Iteration Number = 1986

DILUPBiCG:  Solving for Ux, Initial residual = 0.045490204, Final residual = 6.8761362e-07, No Iterations 3
DILUPBiCG:  Solving for Uz, Initial residual = 0.00015158798, Final residual = 4.4862488e-09, No Iterations 3
DILUPBiCG:  Solving for h, Initial residual = 9.7974724e-06, Final residual = 1.0516935e-10, No Iterations 12
DICPCG:  Solving for p_rgh, Initial residual = 0.0081624353, Final residual = 7.1078846e-07, No Iterations 99
time step continuity errors : sum local = 8.7920239e-06, global = 9.7025311e-08, cumulative = -8.1931736e-05
ExecutionTime = 1412.19 s  ClockTime = 1413 s
Inflow      : 0.011830049 [kg/s]
Outflow     : 0.011830054 [kg/s]
EnergyInflow  : 3495.3322 [W]
EnergyOutflow : 3538.7347 [W]
rho max/avg/min : 1.2016455 1.0554218 0.74629996
T   max/avg/min : 472.81546 343.59591 293.68536
P   max/avg/min : 101324.88 101316.12 101307.37
Prg max/avg/min : 101324.97 101323.81 101318.31
U   max/avg/min : 1.5491524 0.47909947 0
Prg max-min : 6.6578467
 
Iteration Number = 1987

DILUPBiCG:  Solving for Ux, Initial residual = 0.045501755, Final residual = 7.2108304e-07, No Iterations 3
DILUPBiCG:  Solving for Uz, Initial residual = 0.00015265338, Final residual = 2.39087e-09, No Iterations 3
DILUPBiCG:  Solving for h, Initial residual = 9.7762428e-06, Final residual = 5.4668472e-10, No Iterations 10
DICPCG:  Solving for p_rgh, Initial residual = 0.0081590851, Final residual = 7.207839e-07, No Iterations 99
time step continuity errors : sum local = 8.9149802e-06, global = -9.314877e-08, cumulative = -8.2024885e-05
ExecutionTime = 1412.81 s  ClockTime = 1414 s
Inflow      : 0.011832716 [kg/s]
Outflow     : 0.011832711 [kg/s]
EnergyInflow  : 3496.1204 [W]
EnergyOutflow : 3539.5198 [W]
rho max/avg/min : 1.2016455 1.0554227 0.74630019
T   max/avg/min : 472.81531 343.59559 293.68536
P   max/avg/min : 101324.88 101316.12 101307.37
Prg max/avg/min : 101324.97 101323.81 101318.31
U   max/avg/min : 1.5491493 0.47913005 0
Prg max-min : 6.6574743
 
Iteration Number = 1988

DILUPBiCG:  Solving for Ux, Initial residual = 0.04556327, Final residual = 6.8807137e-07, No Iterations 3
DILUPBiCG:  Solving for Uz, Initial residual = 0.00014981574, Final residual = 4.41685e-09, No Iterations 3
DILUPBiCG:  Solving for h, Initial residual = 9.7858721e-06, Final residual = 1.4055198e-10, No Iterations 12
DICPCG:  Solving for p_rgh, Initial residual = 0.0081661473, Final residual = 7.0211789e-07, No Iterations 99
time step continuity errors : sum local = 8.683662e-06, global = 9.8907899e-08, cumulative = -8.1925977e-05
ExecutionTime = 1413.48 s  ClockTime = 1415 s
Inflow      : 0.011835409 [kg/s]
Outflow     : 0.011835415 [kg/s]
EnergyInflow  : 3496.916 [W]
EnergyOutflow : 3540.3189 [W]
rho max/avg/min : 1.2016455 1.0554236 0.74630041
T   max/avg/min : 472.81517 343.59528 293.68536
P   max/avg/min : 101324.88 101316.12 101307.37
Prg max/avg/min : 101324.97 101323.81 101318.31
U   max/avg/min : 1.549158 0.47916107 0
Prg max-min : 6.657843
 
Iteration Number = 1989

DILUPBiCG:  Solving for Ux, Initial residual = 0.045571798, Final residual = 7.2119782e-07, No Iterations 3
DILUPBiCG:  Solving for Uz, Initial residual = 0.00015485887, Final residual = 2.4049824e-09, No Iterations 3
DILUPBiCG:  Solving for h, Initial residual = 9.753848e-06, Final residual = 2.1395625e-10, No Iterations 11
DICPCG:  Solving for p_rgh, Initial residual = 0.0081706418, Final residual = 6.8756227e-07, No Iterations 99
time step continuity errors : sum local = 8.5023149e-06, global = -8.7793254e-08, cumulative = -8.201377e-05
ExecutionTime = 1414.15 s  ClockTime = 1415 s
Inflow      : 0.011838076 [kg/s]
Outflow     : 0.011838071 [kg/s]
EnergyInflow  : 3497.7041 [W]
EnergyOutflow : 3541.104 [W]
rho max/avg/min : 1.2016455 1.0554245 0.74630065
T   max/avg/min : 472.81501 343.59496 293.68536
P   max/avg/min : 101324.88 101316.12 101307.37
Prg max/avg/min : 101324.97 101323.81 101318.31
U   max/avg/min : 1.5491553 0.47919164 0
Prg max-min : 6.6574678
 
Iteration Number = 1990

DILUPBiCG:  Solving for Ux, Initial residual = 0.045682494, Final residual = 6.9251823e-07, No Iterations 3
DILUPBiCG:  Solving for Uz, Initial residual = 0.0001484951, Final residual = 4.4042339e-09, No Iterations 3
DILUPBiCG:  Solving for h, Initial residual = 9.778089e-06, Final residual = 8.2615369e-10, No Iterations 11
DICPCG:  Solving for p_rgh, Initial residual = 0.0081675172, Final residual = 6.6954676e-07, No Iterations 99
time step continuity errors : sum local = 8.2787282e-06, global = 9.192284e-08, cumulative = -8.1921848e-05
ExecutionTime = 1414.92 s  ClockTime = 1416 s
Inflow      : 0.011840764 [kg/s]
Outflow     : 0.01184077 [kg/s]
EnergyInflow  : 3498.4983 [W]
EnergyOutflow : 3541.9015 [W]
rho max/avg/min : 1.2016455 1.0554254 0.74630089
T   max/avg/min : 472.81487 343.59463 293.68536
P   max/avg/min : 101324.88 101316.12 101307.37
Prg max/avg/min : 101324.97 101323.81 101318.31
U   max/avg/min : 1.5491639 0.4792226 0
Prg max-min : 6.6578421
 
Iteration Number = 1991

DILUPBiCG:  Solving for Ux, Initial residual = 0.045773383, Final residual = 7.2114303e-07, No Iterations 3
DILUPBiCG:  Solving for Uz, Initial residual = 0.00015656682, Final residual = 2.4234523e-09, No Iterations 3
DILUPBiCG:  Solving for h, Initial residual = 9.8005296e-06, Final residual = 1.0190626e-10, No Iterations 11
DICPCG:  Solving for p_rgh, Initial residual = 0.0081600938, Final residual = 6.5352083e-07, No Iterations 99
time step continuity errors : sum local = 8.0797867e-06, global = -9.4557983e-08, cumulative = -8.2016406e-05
ExecutionTime = 1415.6 s  ClockTime = 1417 s
Inflow      : 0.011843439 [kg/s]
Outflow     : 0.011843433 [kg/s]
EnergyInflow  : 3499.2885 [W]
EnergyOutflow : 3542.6886 [W]
rho max/avg/min : 1.2016455 1.0554262 0.74630097
T   max/avg/min : 472.81481 343.59433 293.68536
P   max/avg/min : 101324.88 101316.12 101307.37
Prg max/avg/min : 101324.97 101323.81 101318.31
U   max/avg/min : 1.5491607 0.47925324 0
Prg max-min : 6.6574599
 
Iteration Number = 1992

DILUPBiCG:  Solving for Ux, Initial residual = 0.045863958, Final residual = 6.9367831e-07, No Iterations 3
DILUPBiCG:  Solving for Uz, Initial residual = 0.00014714011, Final residual = 4.3879377e-09, No Iterations 3
DILUPBiCG:  Solving for h, Initial residual = 9.662447e-06, Final residual = 9.298194e-10, No Iterations 11
DICPCG:  Solving for p_rgh, Initial residual = 0.0081721099, Final residual = 6.3608347e-07, No Iterations 99
time step continuity errors : sum local = 7.8641884e-06, global = 9.2852063e-08, cumulative = -8.1923553e-05
ExecutionTime = 1416.25 s  ClockTime = 1417 s
Inflow      : 0.011846112 [kg/s]
Outflow     : 0.011846118 [kg/s]
EnergyInflow  : 3500.0783 [W]
EnergyOutflow : 3543.4819 [W]
rho max/avg/min : 1.2016455 1.0554271 0.74630113
T   max/avg/min : 472.81471 343.59402 293.68536
P   max/avg/min : 101324.88 101316.12 101307.37
Prg max/avg/min : 101324.97 101323.81 101318.31
U   max/avg/min : 1.5491692 0.47928406 0
Prg max-min : 6.6578463
 
Iteration Number = 1993

DILUPBiCG:  Solving for Ux, Initial residual = 0.045931211, Final residual = 7.2392088e-07, No Iterations 3
DILUPBiCG:  Solving for Uz, Initial residual = 0.00015748941, Final residual = 2.4201768e-09, No Iterations 3
DILUPBiCG:  Solving for h, Initial residual = 9.6873484e-06, Final residual = 1.1363925e-10, No Iterations 11
DICPCG:  Solving for p_rgh, Initial residual = 0.0081816431, Final residual = 6.2706905e-07, No Iterations 99
time step continuity errors : sum local = 7.7519574e-06, global = -9.4469045e-08, cumulative = -8.2018022e-05
ExecutionTime = 1416.94 s  ClockTime = 1418 s
Inflow      : 0.011848796 [kg/s]
Outflow     : 0.011848791 [kg/s]
EnergyInflow  : 3500.8714 [W]
EnergyOutflow : 3544.2719 [W]
rho max/avg/min : 1.2016455 1.055428 0.74630131
T   max/avg/min : 472.81459 343.59371 293.68536
P   max/avg/min : 101324.88 101316.12 101307.37
Prg max/avg/min : 101324.97 101323.81 101318.31
U   max/avg/min : 1.5491663 0.47931479 0
Prg max-min : 6.6574555
 
Iteration Number = 1994

DILUPBiCG:  Solving for Ux, Initial residual = 0.046102878, Final residual = 6.9649259e-07, No Iterations 3
DILUPBiCG:  Solving for Uz, Initial residual = 0.00014685534, Final residual = 4.3612593e-09, No Iterations 3
DILUPBiCG:  Solving for h, Initial residual = 9.6563376e-06, Final residual = 8.1962859e-10, No Iterations 11
DICPCG:  Solving for p_rgh, Initial residual = 0.0081842081, Final residual = 6.178973e-07, No Iterations 99
time step continuity errors : sum local = 7.6384861e-06, global = 1.0682358e-07, cumulative = -8.1911199e-05
ExecutionTime = 1417.57 s  ClockTime = 1419 s
Inflow      : 0.011851456 [kg/s]
Outflow     : 0.011851462 [kg/s]
EnergyInflow  : 3501.6571 [W]
EnergyOutflow : 3545.0614 [W]
rho max/avg/min : 1.2016455 1.0554289 0.74630151
T   max/avg/min : 472.81447 343.5934 293.68536
P   max/avg/min : 101324.88 101316.12 101307.37
Prg max/avg/min : 101324.97 101323.81 101318.31
U   max/avg/min : 1.5491748 0.47934548 0
Prg max-min : 6.6578401
 
Iteration Number = 1995

DILUPBiCG:  Solving for Ux, Initial residual = 0.046208067, Final residual = 7.2545196e-07, No Iterations 3
DILUPBiCG:  Solving for Uz, Initial residual = 0.00015717637, Final residual = 2.4162876e-09, No Iterations 3
DILUPBiCG:  Solving for h, Initial residual = 9.7211539e-06, Final residual = 1.1129218e-10, No Iterations 11
DICPCG:  Solving for p_rgh, Initial residual = 0.0081838251, Final residual = 6.4589653e-07, No Iterations 99
time step continuity errors : sum local = 7.9827108e-06, global = -9.1871801e-08, cumulative = -8.2003071e-05
ExecutionTime = 1418.24 s  ClockTime = 1419 s
Inflow      : 0.011854148 [kg/s]
Outflow     : 0.011854142 [kg/s]
EnergyInflow  : 3502.4526 [W]
EnergyOutflow : 3545.8535 [W]
rho max/avg/min : 1.2016455 1.0554298 0.74630173
T   max/avg/min : 472.81433 343.59309 293.68536
P   max/avg/min : 101324.88 101316.12 101307.37
Prg max/avg/min : 101324.97 101323.81 101318.31
U   max/avg/min : 1.5491715 0.47937627 0
Prg max-min : 6.6574502
 
Iteration Number = 1996

DILUPBiCG:  Solving for Ux, Initial residual = 0.046300574, Final residual = 7.0076622e-07, No Iterations 3
DILUPBiCG:  Solving for Uz, Initial residual = 0.00014729581, Final residual = 4.3767398e-09, No Iterations 3
DILUPBiCG:  Solving for h, Initial residual = 9.6721379e-06, Final residual = 3.8194212e-10, No Iterations 11
DICPCG:  Solving for p_rgh, Initial residual = 0.0081844749, Final residual = 6.7937676e-07, No Iterations 99
time step continuity errors : sum local = 8.3946105e-06, global = 8.5682084e-08, cumulative = -8.1917389e-05
ExecutionTime = 1418.89 s  ClockTime = 1420 s
Inflow      : 0.011856803 [kg/s]
Outflow     : 0.011856808 [kg/s]
EnergyInflow  : 3503.2372 [W]
EnergyOutflow : 3546.6414 [W]
rho max/avg/min : 1.2016455 1.0554307 0.74630195
T   max/avg/min : 472.8142 343.59278 293.68536
P   max/avg/min : 101324.88 101316.12 101307.37
Prg max/avg/min : 101324.97 101323.81 101318.31
U   max/avg/min : 1.5491799 0.47940691 0
Prg max-min : 6.657836
 
Iteration Number = 1997

DILUPBiCG:  Solving for Ux, Initial residual = 0.046311082, Final residual = 7.2586415e-07, No Iterations 3
DILUPBiCG:  Solving for Uz, Initial residual = 0.00015659671, Final residual = 2.4045696e-09, No Iterations 3
DILUPBiCG:  Solving for h, Initial residual = 9.7426765e-06, Final residual = 1.218311e-10, No Iterations 11
DICPCG:  Solving for p_rgh, Initial residual = 0.0081915033, Final residual = 6.9378798e-07, No Iterations 99
time step continuity errors : sum local = 8.5723327e-06, global = -8.0785638e-08, cumulative = -8.1998174e-05
ExecutionTime = 1419.57 s  ClockTime = 1421 s
Inflow      : 0.011859493 [kg/s]
Outflow     : 0.011859488 [kg/s]
EnergyInflow  : 3504.0319 [W]
EnergyOutflow : 3547.4333 [W]
rho max/avg/min : 1.2016455 1.0554316 0.74630218
T   max/avg/min : 472.81404 343.59246 293.68536
P   max/avg/min : 101324.88 101316.12 101307.37
Prg max/avg/min : 101324.97 101323.81 101318.31
U   max/avg/min : 1.5491771 0.47943769 0
Prg max-min : 6.6574467
 
Iteration Number = 1998

DILUPBiCG:  Solving for Ux, Initial residual = 0.046561984, Final residual = 7.0160629e-07, No Iterations 3
DILUPBiCG:  Solving for Uz, Initial residual = 0.00014815152, Final residual = 4.4093167e-09, No Iterations 3
DILUPBiCG:  Solving for h, Initial residual = 9.6870687e-06, Final residual = 3.1809564e-10, No Iterations 11
DICPCG:  Solving for p_rgh, Initial residual = 0.0081925569, Final residual = 7.2935543e-07, No Iterations 99
time step continuity errors : sum local = 9.010174e-06, global = 8.4296697e-08, cumulative = -8.1913878e-05
ExecutionTime = 1420.24 s  ClockTime = 1421 s
Inflow      : 0.011862145 [kg/s]
Outflow     : 0.01186215 [kg/s]
EnergyInflow  : 3504.8154 [W]
EnergyOutflow : 3548.2199 [W]
rho max/avg/min : 1.2016455 1.0554325 0.74630242
T   max/avg/min : 472.81389 343.59215 293.68536
P   max/avg/min : 101324.88 101316.12 101307.37
Prg max/avg/min : 101324.97 101323.81 101318.31
U   max/avg/min : 1.5491855 0.47946829 0
Prg max-min : 6.6578344
 
Iteration Number = 1999

DILUPBiCG:  Solving for Ux, Initial residual = 0.046762672, Final residual = 7.3235028e-07, No Iterations 3
DILUPBiCG:  Solving for Uz, Initial residual = 0.00015635854, Final residual = 2.40593e-09, No Iterations 3
DILUPBiCG:  Solving for h, Initial residual = 9.7677807e-06, Final residual = 1.1698333e-10, No Iterations 11
DICPCG:  Solving for p_rgh, Initial residual = 0.0081865873, Final residual = 7.2861555e-07, No Iterations 99
time step continuity errors : sum local = 9.0012958e-06, global = -7.9489177e-08, cumulative = -8.1993367e-05
ExecutionTime = 1420.88 s  ClockTime = 1422 s
Inflow      : 0.011864836 [kg/s]
Outflow     : 0.011864831 [kg/s]
EnergyInflow  : 3505.6105 [W]
EnergyOutflow : 3549.0123 [W]
rho max/avg/min : 1.2016455 1.0554334 0.74630268
T   max/avg/min : 472.81373 343.59183 293.68536
P   max/avg/min : 101324.88 101316.12 101307.37
Prg max/avg/min : 101324.97 101323.81 101318.31
U   max/avg/min : 1.5491822 0.47949908 0
Prg max-min : 6.6574395
 
Iteration Number = 2000

DILUPBiCG:  Solving for Ux, Initial residual = 0.04693193, Final residual = 7.0699858e-07, No Iterations 3
DILUPBiCG:  Solving for Uz, Initial residual = 0.00014925252, Final residual = 4.436848e-09, No Iterations 3
DILUPBiCG:  Solving for h, Initial residual = 9.709635e-06, Final residual = 9.134861e-10, No Iterations 11
DICPCG:  Solving for p_rgh, Initial residual = 0.0081892019, Final residual = 7.3522196e-07, No Iterations 99
time step continuity errors : sum local = 9.0815243e-06, global = 9.6355496e-08, cumulative = -8.1897011e-05
ExecutionTime = 1422.57 s  ClockTime = 1424 s
Inflow      : 0.011867483 [kg/s]
Outflow     : 0.011867489 [kg/s]
EnergyInflow  : 3506.3926 [W]
EnergyOutflow : 3549.7976 [W]
rho max/avg/min : 1.2016455 1.0554343 0.74630294
T   max/avg/min : 472.81357 343.59151 293.68536
P   max/avg/min : 101324.88 101316.12 101307.37
Prg max/avg/min : 101324.97 101323.81 101318.31
U   max/avg/min : 1.5491907 0.47952964 0
Prg max-min : 6.6578323
 
End

