/*---------------------------------------------------------------------------*\
| =========                 |                                                 |
| \\      /  F ield         | OpenFOAM: The Open Source CFD Toolbox           |
|  \\    /   O peration     | Version:  4.0                                   |
|   \\  /    A nd           | Web:      www.OpenFOAM.org                      |
|    \\/     M anipulation  |                                                 |
\*---------------------------------------------------------------------------*/
Build  : 4.0-665f1db4c1f1
Exec   : pupoBuoyantSimpleFoam
Date   : Sep 16 2016
Time   : 16:53:17
Host   : "SC500"
PID    : 7542
Case   : /home/pedro/Documents/ThesisProject/OpenFoam/validation1rod/NoRad
nProcs : 1
sigFpe : Enabling floating point exception trapping (FOAM_SIGFPE).
fileModificationChecking : Monitoring run-time modified files using timeStampMaster
allowSystemOperations : Allowing user-supplied system call operations

// * * * * * * * * * * * * * * * * * * * * * * * * * * * * * * * * * * * * * //
Create time

Create mesh for time = 0


SIMPLE: convergence criteria
    field p_rgh	 tolerance 1e-06
    field Uz	 tolerance 1e-06
    field h	 tolerance 1e-06

Reading thermophysical properties

Selecting thermodynamics package 
{
    type            heRhoThermo;
    mixture         pureMixture;
    transport       sutherland;
    thermo          hConst;
    equationOfState perfectGas;
    specie          specie;
    energy          sensibleEnthalpy;
}


Reading g

Reading hRef
Calculating field g.h

Selecting turbulence model type laminar
No MRF models present

Selecting radiationModel none
 
rho max/avg/min : 1.2016452 1.2015414 1.2014377
T   max/avg/min : 293.7 293.7 293.7
P   max/avg/min : 101324.91 101316.16 101307.41
Prg max/avg/min : 101325 101325 101325
U   max/avg/min : 0 0 0
 
No finite volume options present


Starting Iteration loop

Iteration Number = 1

DILUPBiCG:  Solving for Ux, Initial residual = 0.009764874, Final residual = 1.4535255e-06, No Iterations 2
DILUPBiCG:  Solving for Uy, Initial residual = 4.8698736e-07, Final residual = 4.8698736e-07, No Iterations 0
DILUPBiCG:  Solving for Uz, Initial residual = 1, Final residual = 0.00034288199, No Iterations 2
DILUPBiCG:  Solving for h, Initial residual = 1, Final residual = 0.00046001801, No Iterations 1
GAMG:  Solving for p_rgh, Initial residual = 0.30824856, Final residual = 8.2604747e-05, No Iterations 5
time step continuity errors : sum local = 6.6428947e-06, global = -2.3869093e-06, cumulative = -2.3869093e-06
ExecutionTime = 0.09 s  ClockTime = 0 s
Inflow      : -2.5329615e-07 [kg/s]
Outflow     : -2.5528683e-07 [kg/s]
EnergyInflow  : -0.074839438 [W]
EnergyOutflow : -0.075427609 [W]
EnergyBalance : -0.00058817097 [W]
rho max/avg/min : 1.2016452 1.2010688 1.193069
T   max/avg/min : 295.76012 293.81602 293.7
P   max/avg/min : 101324.91 101316.16 101307.41
Prg max/avg/min : 101325 101325 101324.88
U   max/avg/min : 7.7355302e-06 -9.0184483e-05 -0.00085377286
Prg max-min : 0.12315966
 
Iteration Number = 2

DILUPBiCG:  Solving for Ux, Initial residual = 0.31199072, Final residual = 0.00010794373, No Iterations 2
DILUPBiCG:  Solving for Uy, Initial residual = 9.0356782e-05, Final residual = 2.5044923e-08, No Iterations 2
DILUPBiCG:  Solving for Uz, Initial residual = 0.37507679, Final residual = 3.1516941e-05, No Iterations 2
DILUPBiCG:  Solving for h, Initial residual = 0.25463271, Final residual = 7.5993733e-05, No Iterations 1
GAMG:  Solving for p_rgh, Initial residual = 0.03265328, Final residual = 2.1358355e-05, No Iterations 5
time step continuity errors : sum local = 9.0328121e-06, global = 3.4521697e-06, cumulative = 1.0652604e-06
ExecutionTime = 0.12 s  ClockTime = 0 s
Inflow      : -3.4789831e-07 [kg/s]
Outflow     : -3.450192e-07 [kg/s]
EnergyInflow  : -0.1027908 [W]
EnergyOutflow : -0.10194013 [W]
EnergyBalance : 0.00085066744 [W]
rho max/avg/min : 1.2016452 1.2006185 1.1885755
T   max/avg/min : 296.87879 293.92707 293.7
P   max/avg/min : 101324.91 101316.16 101307.41
Prg max/avg/min : 101325 101324.99 101324.81
U   max/avg/min : 2.5335018e-05 -0.0001333865 -0.00084638226
Prg max-min : 0.1901829
 
Iteration Number = 3

DILUPBiCG:  Solving for Ux, Initial residual = 0.51862468, Final residual = 0.0002233807, No Iterations 2
DILUPBiCG:  Solving for Uy, Initial residual = 0.00010683241, Final residual = 3.6314915e-08, No Iterations 2
DILUPBiCG:  Solving for Uz, Initial residual = 0.18377357, Final residual = 1.827294e-05, No Iterations 2
DILUPBiCG:  Solving for h, Initial residual = 0.15758139, Final residual = 4.9201879e-05, No Iterations 1
GAMG:  Solving for p_rgh, Initial residual = 0.012595202, Final residual = 1.1138795e-05, No Iterations 4
time step continuity errors : sum local = 9.439057e-06, global = -2.0948496e-07, cumulative = 8.5577545e-07
ExecutionTime = 0.16 s  ClockTime = 0 s
Inflow      : -2.6382089e-07 [kg/s]
Outflow     : -2.639956e-07 [kg/s]
EnergyInflow  : -0.077949101 [W]
EnergyOutflow : -0.078000715 [W]
EnergyBalance : -5.161469e-05 [W]
rho max/avg/min : 1.2016452 1.2001838 1.1854816
T   max/avg/min : 297.65358 294.03451 293.70001
P   max/avg/min : 101324.91 101316.16 101307.41
Prg max/avg/min : 101325 101324.99 101324.76
U   max/avg/min : 5.0446994e-05 -9.9105946e-05 -0.00065823439
Prg max-min : 0.23512387
 
Iteration Number = 4

DILUPBiCG:  Solving for Ux, Initial residual = 0.45987236, Final residual = 0.00016321431, No Iterations 2
DILUPBiCG:  Solving for Uy, Initial residual = 6.5498325e-05, Final residual = 9.6043005e-07, No Iterations 1
DILUPBiCG:  Solving for Uz, Initial residual = 0.048730211, Final residual = 3.8084404e-06, No Iterations 2
DILUPBiCG:  Solving for h, Initial residual = 0.11427969, Final residual = 4.5888416e-05, No Iterations 1
GAMG:  Solving for p_rgh, Initial residual = 0.008251075, Final residual = 6.5886872e-06, No Iterations 4
time step continuity errors : sum local = 7.631504e-06, global = 3.0284111e-07, cumulative = 1.1586166e-06
ExecutionTime = 0.19 s  ClockTime = 0 s
Inflow      : -2.0569044e-07 [kg/s]
Outflow     : -2.0543787e-07 [kg/s]
EnergyInflow  : -0.060773749 [W]
EnergyOutflow : -0.060699107 [W]
EnergyBalance : 7.4642254e-05 [W]
rho max/avg/min : 1.2016452 1.1997522 1.1829312
T   max/avg/min : 298.29514 294.14141 293.70002
P   max/avg/min : 101324.91 101316.16 101307.41
Prg max/avg/min : 101325 101324.99 101324.73
U   max/avg/min : 8.4100562e-05 -7.2956277e-05 -0.00051147372
Prg max-min : 0.27267546
 
Iteration Number = 5

DILUPBiCG:  Solving for Ux, Initial residual = 0.53090863, Final residual = 0.00018991047, No Iterations 2
DILUPBiCG:  Solving for Uy, Initial residual = 5.6393358e-05, Final residual = 7.6852966e-07, No Iterations 1
DILUPBiCG:  Solving for Uz, Initial residual = 0.16983334, Final residual = 1.5864239e-05, No Iterations 2
DILUPBiCG:  Solving for h, Initial residual = 0.090514691, Final residual = 4.5964241e-05, No Iterations 1
GAMG:  Solving for p_rgh, Initial residual = 0.006225185, Final residual = 4.9397655e-06, No Iterations 4
time step continuity errors : sum local = 7.3907749e-06, global = -8.0992297e-07, cumulative = 3.4869359e-07
ExecutionTime = 0.23 s  ClockTime = 0 s
Inflow      : -1.6181094e-07 [kg/s]
Outflow     : -1.6248642e-07 [kg/s]
EnergyInflow  : -0.047809017 [W]
EnergyOutflow : -0.048008553 [W]
EnergyBalance : -0.00019953632 [W]
rho max/avg/min : 1.2016451 1.1993209 1.1807011
T   max/avg/min : 298.85839 294.24845 293.70002
P   max/avg/min : 101324.91 101316.16 101307.41
Prg max/avg/min : 101325 101324.98 101324.69
U   max/avg/min : 0.00012514036 -4.4732617e-05 -0.00041396816
Prg max-min : 0.30511989
 
Iteration Number = 6

DILUPBiCG:  Solving for Ux, Initial residual = 0.47666483, Final residual = 0.00017118936, No Iterations 2
DILUPBiCG:  Solving for Uy, Initial residual = 4.791487e-05, Final residual = 6.5618434e-07, No Iterations 1
DILUPBiCG:  Solving for Uz, Initial residual = 0.08665228, Final residual = 2.3669575e-06, No Iterations 2
DILUPBiCG:  Solving for h, Initial residual = 0.075319971, Final residual = 4.8546127e-05, No Iterations 1
GAMG:  Solving for p_rgh, Initial residual = 0.0050989165, Final residual = 2.0969842e-06, No Iterations 4
time step continuity errors : sum local = 3.8078915e-06, global = 1.6216091e-06, cumulative = 1.9703027e-06
ExecutionTime = 0.26 s  ClockTime = 0 s
Inflow      : -1.3194206e-07 [kg/s]
Outflow     : -1.3058964e-07 [kg/s]
EnergyInflow  : -0.038983893 [W]
EnergyOutflow : -0.038584221 [W]
EnergyBalance : 0.00039967157 [W]
rho max/avg/min : 1.2016451 1.1988891 1.1786983
T   max/avg/min : 299.36606 294.35574 293.70003
P   max/avg/min : 101324.91 101316.16 101307.41
Prg max/avg/min : 101325 101324.98 101324.67
U   max/avg/min : 0.0001751342 -1.7364427e-05 -0.00034550771
Prg max-min : 0.33455669
 
Iteration Number = 7

DILUPBiCG:  Solving for Ux, Initial residual = 0.44274439, Final residual = 0.00016355714, No Iterations 2
DILUPBiCG:  Solving for Uy, Initial residual = 4.3979663e-05, Final residual = 5.6591518e-07, No Iterations 1
DILUPBiCG:  Solving for Uz, Initial residual = 0.16071213, Final residual = 7.3041425e-06, No Iterations 2
DILUPBiCG:  Solving for h, Initial residual = 0.064710996, Final residual = 5.1915091e-05, No Iterations 1
GAMG:  Solving for p_rgh, Initial residual = 0.0042606079, Final residual = 2.2017156e-06, No Iterations 4
time step continuity errors : sum local = 4.7450258e-06, global = -2.2231531e-06, cumulative = -2.5285044e-07
ExecutionTime = 0.3 s  ClockTime = 0 s
Inflow      : -1.0461826e-07 [kg/s]
Outflow     : -1.0647237e-07 [kg/s]
EnergyInflow  : -0.030910743 [W]
EnergyOutflow : -0.031458412 [W]
EnergyBalance : -0.00054766965 [W]
rho max/avg/min : 1.2016451 1.1984568 1.1768681
T   max/avg/min : 299.8316 294.46331 293.70002
P   max/avg/min : 101324.91 101316.16 101307.41
Prg max/avg/min : 101325 101324.98 101324.64
U   max/avg/min : 0.00023406032 1.6284704e-05 -0.00028989325
Prg max-min : 0.3612483
 
Iteration Number = 8

DILUPBiCG:  Solving for Ux, Initial residual = 0.37326501, Final residual = 0.00013367453, No Iterations 2
DILUPBiCG:  Solving for Uy, Initial residual = 3.9961309e-05, Final residual = 4.6277559e-07, No Iterations 1
DILUPBiCG:  Solving for Uz, Initial residual = 0.12410959, Final residual = 2.2706822e-06, No Iterations 2
DILUPBiCG:  Solving for h, Initial residual = 0.056888105, Final residual = 5.6456557e-05, No Iterations 1
GAMG:  Solving for p_rgh, Initial residual = 0.0038226185, Final residual = 2.6339562e-06, No Iterations 4
time step continuity errors : sum local = 6.5092841e-06, global = 2.3161969e-06, cumulative = 2.0633464e-06
ExecutionTime = 0.34 s  ClockTime = 1 s
Inflow      : -8.9610822e-08 [kg/s]
Outflow     : -8.7679115e-08 [kg/s]
EnergyInflow  : -0.026476611 [W]
EnergyOutflow : -0.025905611 [W]
EnergyBalance : 0.00057099958 [W]
rho max/avg/min : 1.2016451 1.1980241 1.1751746
T   max/avg/min : 300.26368 294.57114 293.70002
P   max/avg/min : 101324.91 101316.16 101307.41
Prg max/avg/min : 101325 101324.97 101324.61
U   max/avg/min : 0.00030227484 5.3455713e-05 -0.00025660855
Prg max-min : 0.38608209
 
Iteration Number = 9

DILUPBiCG:  Solving for Ux, Initial residual = 0.32919198, Final residual = 0.00010987702, No Iterations 2
DILUPBiCG:  Solving for Uy, Initial residual = 3.6292985e-05, Final residual = 3.8118483e-07, No Iterations 1
DILUPBiCG:  Solving for Uz, Initial residual = 0.14895216, Final residual = 3.603723e-06, No Iterations 2
DILUPBiCG:  Solving for h, Initial residual = 0.050862066, Final residual = 1.4096557e-05, No Iterations 2
GAMG:  Solving for p_rgh, Initial residual = 0.0035310235, Final residual = 8.6919305e-07, No Iterations 4
time step continuity errors : sum local = 2.446847e-06, global = 5.7120317e-07, cumulative = 2.6345496e-06
ExecutionTime = 0.38 s  ClockTime = 1 s
Inflow      : -7.3814646e-08 [kg/s]
Outflow     : -7.3338263e-08 [kg/s]
EnergyInflow  : -0.021809438 [W]
EnergyOutflow : -0.021668275 [W]
EnergyBalance : 0.00014116245 [W]
rho max/avg/min : 1.2016451 1.1975905 1.1735935
T   max/avg/min : 300.66819 294.6793 293.70002
P   max/avg/min : 101324.91 101316.16 101307.41
Prg max/avg/min : 101325 101324.97 101324.59
U   max/avg/min : 0.00038338283 0.00010028003 -0.00022340354
Prg max-min : 0.40919005
 
Iteration Number = 10

DILUPBiCG:  Solving for Ux, Initial residual = 0.26678321, Final residual = 8.7701135e-05, No Iterations 2
DILUPBiCG:  Solving for Uy, Initial residual = 3.6342817e-05, Final residual = 3.076813e-07, No Iterations 1
DILUPBiCG:  Solving for Uz, Initial residual = 0.14015642, Final residual = 2.8729012e-06, No Iterations 2
DILUPBiCG:  Solving for h, Initial residual = 0.046064088, Final residual = 1.3469871e-05, No Iterations 2
GAMG:  Solving for p_rgh, Initial residual = 0.0033633036, Final residual = 9.745821e-07, No Iterations 4
time step continuity errors : sum local = 3.0551755e-06, global = 6.9116458e-07, cumulative = 3.3257142e-06
ExecutionTime = 0.41 s  ClockTime = 1 s
Inflow      : -6.2477161e-08 [kg/s]
Outflow     : -6.1900731e-08 [kg/s]
EnergyInflow  : -0.01845964 [W]
EnergyOutflow : -0.018288689 [W]
EnergyBalance : 0.00017095053 [W]
rho max/avg/min : 1.2016451 1.1971566 1.1721064
T   max/avg/min : 301.04966 294.78768 293.70002
P   max/avg/min : 101324.91 101316.16 101307.41
Prg max/avg/min : 101325 101324.97 101324.57
U   max/avg/min : 0.00047729997 0.00015679663 -0.00020140991
Prg max-min : 0.43096563
 
Iteration Number = 11

DILUPBiCG:  Solving for Ux, Initial residual = 0.225274, Final residual = 6.9810338e-05, No Iterations 2
DILUPBiCG:  Solving for Uy, Initial residual = 4.286381e-05, Final residual = 3.6056615e-07, No Iterations 1
DILUPBiCG:  Solving for Uz, Initial residual = 0.14396863, Final residual = 3.6877458e-06, No Iterations 2
DILUPBiCG:  Solving for h, Initial residual = 0.04216454, Final residual = 1.2803462e-05, No Iterations 2
GAMG:  Solving for p_rgh, Initial residual = 0.0033752865, Final residual = 1.5388885e-06, No Iterations 4
time step continuity errors : sum local = 5.3468838e-06, global = 1.2077319e-06, cumulative = 4.5334461e-06
ExecutionTime = 0.46 s  ClockTime = 1 s
Inflow      : -5.4011667e-08 [kg/s]
Outflow     : -5.3004419e-08 [kg/s]
EnergyInflow  : -0.015958406 [W]
EnergyOutflow : -0.015659839 [W]
EnergyBalance : 0.00029856723 [W]
rho max/avg/min : 1.2016451 1.1967224 1.1706997
T   max/avg/min : 301.41141 294.89624 293.70003
P   max/avg/min : 101324.91 101316.16 101307.41
Prg max/avg/min : 101325 101324.96 101324.55
U   max/avg/min : 0.00058696692 0.00022549893 -0.00018636559
Prg max-min : 0.45152468
 
Iteration Number = 12

DILUPBiCG:  Solving for Ux, Initial residual = 0.18928606, Final residual = 5.3730712e-05, No Iterations 2
DILUPBiCG:  Solving for Uy, Initial residual = 5.0367165e-05, Final residual = 3.4422155e-07, No Iterations 1
DILUPBiCG:  Solving for Uz, Initial residual = 0.13930715, Final residual = 2.1217344e-06, No Iterations 2
DILUPBiCG:  Solving for h, Initial residual = 0.038924772, Final residual = 9.9458737e-06, No Iterations 2
GAMG:  Solving for p_rgh, Initial residual = 0.0033602729, Final residual = 2.0149205e-06, No Iterations 4
time step continuity errors : sum local = 7.670878e-06, global = 2.5651789e-06, cumulative = 7.098625e-06
ExecutionTime = 0.5 s  ClockTime = 1 s
Inflow      : -4.832085e-08 [kg/s]
Outflow     : -4.6181492e-08 [kg/s]
EnergyInflow  : -0.014276985 [W]
EnergyOutflow : -0.013643463 [W]
EnergyBalance : 0.00063352191 [W]
rho max/avg/min : 1.2016451 1.1962881 1.1693628
T   max/avg/min : 301.756 295.00495 293.70003
P   max/avg/min : 101324.91 101316.16 101307.41
Prg max/avg/min : 101325 101324.96 101324.53
U   max/avg/min : 0.00071699018 0.00030879767 -0.00017724448
Prg max-min : 0.47109293
 
Iteration Number = 13

DILUPBiCG:  Solving for Ux, Initial residual = 0.1510853, Final residual = 3.4965859e-05, No Iterations 2
DILUPBiCG:  Solving for Uy, Initial residual = 6.1796778e-05, Final residual = 3.3570022e-07, No Iterations 1
DILUPBiCG:  Solving for Uz, Initial residual = 0.14101225, Final residual = 2.522903e-06, No Iterations 2
DILUPBiCG:  Solving for h, Initial residual = 0.036173539, Final residual = 7.8245014e-06, No Iterations 2
GAMG:  Solving for p_rgh, Initial residual = 0.0034886177, Final residual = 2.3135927e-06, No Iterations 4
time step continuity errors : sum local = 9.5992682e-06, global = 1.8201146e-06, cumulative = 8.9187395e-06
ExecutionTime = 0.53 s  ClockTime = 1 s
Inflow      : -4.2561181e-08 [kg/s]
Outflow     : -4.1043207e-08 [kg/s]
EnergyInflow  : -0.01257522 [W]
EnergyOutflow : -0.01212465 [W]
EnergyBalance : 0.00045057028 [W]
rho max/avg/min : 1.201645 1.1958537 1.1680875
T   max/avg/min : 302.08546 295.11378 293.70004
P   max/avg/min : 101324.91 101316.16 101307.41
Prg max/avg/min : 101325 101324.96 101324.51
U   max/avg/min : 0.0008706611 0.00040894678 -0.00017501384
Prg max-min : 0.48971851
 
Iteration Number = 14

DILUPBiCG:  Solving for Ux, Initial residual = 0.13867794, Final residual = 3.1728513e-05, No Iterations 2
DILUPBiCG:  Solving for Uy, Initial residual = 8.0094661e-05, Final residual = 3.7082019e-07, No Iterations 1
DILUPBiCG:  Solving for Uz, Initial residual = 0.1414134, Final residual = 4.0515188e-06, No Iterations 2
DILUPBiCG:  Solving for h, Initial residual = 0.033835802, Final residual = 9.0967559e-06, No Iterations 2
GAMG:  Solving for p_rgh, Initial residual = 0.0035624385, Final residual = 2.9579213e-06, No Iterations 4
time step continuity errors : sum local = 1.326938e-05, global = 5.6148175e-06, cumulative = 1.4533557e-05
ExecutionTime = 0.57 s  ClockTime = 1 s
Inflow      : -4.2164493e-08 [kg/s]
Outflow     : -3.7481738e-08 [kg/s]
EnergyInflow  : -0.012458014 [W]
EnergyOutflow : -0.011071486 [W]
EnergyBalance : 0.0013865275 [W]
rho max/avg/min : 1.201645 1.1954195 1.1668668
T   max/avg/min : 302.40147 295.22268 293.70006
P   max/avg/min : 101324.91 101316.16 101307.41
Prg max/avg/min : 101325 101324.95 101324.49
U   max/avg/min : 0.0010541131 0.00052848028 -0.00018521454
Prg max-min : 0.50756715
 
Iteration Number = 15

DILUPBiCG:  Solving for Ux, Initial residual = 0.12118851, Final residual = 2.2241552e-05, No Iterations 2
DILUPBiCG:  Solving for Uy, Initial residual = 9.3614626e-05, Final residual = 3.6983029e-07, No Iterations 1
DILUPBiCG:  Solving for Uz, Initial residual = 0.14176213, Final residual = 4.0481532e-06, No Iterations 2
DILUPBiCG:  Solving for h, Initial residual = 0.031789416, Final residual = 7.1513863e-06, No Iterations 2
GAMG:  Solving for p_rgh, Initial residual = 0.0037857385, Final residual = 3.092482e-06, No Iterations 4
time step continuity errors : sum local = 1.4942927e-05, global = 1.9830317e-06, cumulative = 1.6516589e-05
ExecutionTime = 0.61 s  ClockTime = 1 s
Inflow      : -3.794618e-08 [kg/s]
Outflow     : -3.6292333e-08 [kg/s]
EnergyInflow  : -0.011211662 [W]
EnergyOutflow : -0.010718858 [W]
EnergyBalance : 0.00049280375 [W]
rho max/avg/min : 1.2016448 1.1949854 1.1656953
T   max/avg/min : 302.70537 295.33164 293.70009
P   max/avg/min : 101324.91 101316.16 101307.41
Prg max/avg/min : 101325 101324.95 101324.48
U   max/avg/min : 0.0012714757 0.0006695213 -0.00021999575
Prg max-min : 0.52465009
 
Iteration Number = 16

DILUPBiCG:  Solving for Ux, Initial residual = 0.12452576, Final residual = 2.5593266e-05, No Iterations 2
DILUPBiCG:  Solving for Uy, Initial residual = 0.00012681746, Final residual = 4.8940133e-07, No Iterations 1
DILUPBiCG:  Solving for Uz, Initial residual = 0.14072649, Final residual = 6.3148323e-06, No Iterations 2
DILUPBiCG:  Solving for h, Initial residual = 0.029996397, Final residual = 1.4284651e-05, No Iterations 2
GAMG:  Solving for p_rgh, Initial residual = 0.0039354659, Final residual = 8.5554436e-07, No Iterations 5
time step continuity errors : sum local = 4.4458807e-06, global = 3.1020094e-07, cumulative = 1.682679e-05
ExecutionTime = 0.65 s  ClockTime = 1 s
Inflow      : -3.7479819e-08 [kg/s]
Outflow     : -3.7221111e-08 [kg/s]
EnergyInflow  : -0.01107387 [W]
EnergyOutflow : -0.010991644 [W]
EnergyBalance : 8.2225686e-05 [W]
rho max/avg/min : 1.2016446 1.1945518 1.1645682
T   max/avg/min : 302.99836 295.44058 293.70014
P   max/avg/min : 101324.91 101316.16 101307.41
Prg max/avg/min : 101325 101324.95 101324.46
U   max/avg/min : 0.0015297943 0.00083513121 -0.0002920349
Prg max-min : 0.54111352
 
Iteration Number = 17

DILUPBiCG:  Solving for Ux, Initial residual = 0.11922054, Final residual = 2.2112957e-05, No Iterations 2
DILUPBiCG:  Solving for Uy, Initial residual = 0.00015987228, Final residual = 6.2722693e-07, No Iterations 1
DILUPBiCG:  Solving for Uz, Initial residual = 0.13841679, Final residual = 6.15477e-06, No Iterations 2
DILUPBiCG:  Solving for h, Initial residual = 0.028418845, Final residual = 2.3014109e-05, No Iterations 2
GAMG:  Solving for p_rgh, Initial residual = 0.0043389617, Final residual = 4.1616781e-06, No Iterations 4
time step continuity errors : sum local = 2.2999956e-05, global = 6.2505679e-06, cumulative = 2.3077358e-05
ExecutionTime = 0.69 s  ClockTime = 1 s
Inflow      : -4.5886456e-08 [kg/s]
Outflow     : -4.0673486e-08 [kg/s]
EnergyInflow  : -0.013557713 [W]
EnergyOutflow : -0.012009488 [W]
EnergyBalance : 0.0015482254 [W]
rho max/avg/min : 1.2016444 1.1941188 1.1634814
T   max/avg/min : 303.28139 295.54946 293.7002
P   max/avg/min : 101324.91 101316.16 101307.41
Prg max/avg/min : 101325 101324.94 101324.44
U   max/avg/min : 0.0018354248 0.0010258753 -0.00040470956
Prg max-min : 0.55691055
 
Iteration Number = 18

DILUPBiCG:  Solving for Ux, Initial residual = 0.13807041, Final residual = 2.9890254e-05, No Iterations 2
DILUPBiCG:  Solving for Uy, Initial residual = 0.00021359472, Final residual = 1.6482429e-08, No Iterations 2
DILUPBiCG:  Solving for Uz, Initial residual = 0.13528832, Final residual = 8.5536584e-06, No Iterations 2
DILUPBiCG:  Solving for h, Initial residual = 0.027001215, Final residual = 2.3728511e-05, No Iterations 2
GAMG:  Solving for p_rgh, Initial residual = 0.0044462665, Final residual = 3.2779305e-06, No Iterations 4
time step continuity errors : sum local = 1.9234832e-05, global = 7.674295e-06, cumulative = 3.0751653e-05
ExecutionTime = 0.72 s  ClockTime = 1 s
Inflow      : -5.3681354e-08 [kg/s]
Outflow     : -4.7280996e-08 [kg/s]
EnergyInflow  : -0.015860811 [W]
EnergyOutflow : -0.013958818 [W]
EnergyBalance : 0.0019019933 [W]
rho max/avg/min : 1.2016439 1.1936864 1.1624316
T   max/avg/min : 303.55527 295.65828 293.70028
P   max/avg/min : 101324.91 101316.16 101307.41
Prg max/avg/min : 101325 101324.94 101324.43
U   max/avg/min : 0.0021946569 0.0012461901 -0.00054321074
Prg max-min : 0.57222686
 
Iteration Number = 19

DILUPBiCG:  Solving for Ux, Initial residual = 0.12258427, Final residual = 2.6842219e-05, No Iterations 2
DILUPBiCG:  Solving for Uy, Initial residual = 0.00025668461, Final residual = 2.3545583e-08, No Iterations 2
DILUPBiCG:  Solving for Uz, Initial residual = 0.13027953, Final residual = 7.8861899e-06, No Iterations 2
DILUPBiCG:  Solving for h, Initial residual = 0.025720208, Final residual = 1.0888756e-05, No Iterations 3
GAMG:  Solving for p_rgh, Initial residual = 0.0048290496, Final residual = 3.9866025e-07, No Iterations 5
time step continuity errors : sum local = 2.4921013e-06, global = 2.7595925e-07, cumulative = 3.1027612e-05
ExecutionTime = 0.76 s  ClockTime = 1 s
Inflow      : -5.824485e-08 [kg/s]
Outflow     : -5.8014701e-08 [kg/s]
EnergyInflow  : -0.017209152 [W]
EnergyOutflow : -0.017126304 [W]
EnergyBalance : 8.2847991e-05 [W]
rho max/avg/min : 1.2016431 1.1932541 1.1614159
T   max/avg/min : 303.82073 295.76716 293.70042
P   max/avg/min : 101324.91 101316.16 101307.41
Prg max/avg/min : 101325 101324.94 101324.41
U   max/avg/min : 0.0026182079 0.0014977608 -0.00071069323
Prg max-min : 0.58692507
 
Iteration Number = 20

DILUPBiCG:  Solving for Ux, Initial residual = 0.12835428, Final residual = 3.3515495e-05, No Iterations 2
DILUPBiCG:  Solving for Uy, Initial residual = 0.00031317031, Final residual = 2.6431314e-08, No Iterations 2
DILUPBiCG:  Solving for Uz, Initial residual = 0.12545891, Final residual = 9.8984592e-06, No Iterations 2
DILUPBiCG:  Solving for h, Initial residual = 0.024563915, Final residual = 1.1487911e-05, No Iterations 3
GAMG:  Solving for p_rgh, Initial residual = 0.0052447205, Final residual = 4.5536802e-06, No Iterations 4
time step continuity errors : sum local = 3.0021732e-05, global = 1.419778e-05, cumulative = 4.5225392e-05
ExecutionTime = 0.79 s  ClockTime = 1 s
Inflow      : -8.5810742e-08 [kg/s]
Outflow     : -7.3969802e-08 [kg/s]
EnergyInflow  : -0.025353831 [W]
EnergyOutflow : -0.021835269 [W]
EnergyBalance : 0.0035185619 [W]
rho max/avg/min : 1.2016421 1.1928226 1.1604318
T   max/avg/min : 304.0784 295.87593 293.7006
P   max/avg/min : 101324.91 101316.16 101307.41
Prg max/avg/min : 101325 101324.94 101324.4
U   max/avg/min : 0.003110862 0.0017784136 -0.000964673
Prg max-min : 0.60116827
 
Iteration Number = 21

DILUPBiCG:  Solving for Ux, Initial residual = 0.11409336, Final residual = 3.0204986e-05, No Iterations 2
DILUPBiCG:  Solving for Uy, Initial residual = 0.00043959481, Final residual = 4.0144934e-08, No Iterations 2
DILUPBiCG:  Solving for Uz, Initial residual = 0.11933309, Final residual = 1.0944598e-05, No Iterations 2
DILUPBiCG:  Solving for h, Initial residual = 0.023505703, Final residual = 1.8753624e-05, No Iterations 3
GAMG:  Solving for p_rgh, Initial residual = 0.0053647132, Final residual = 4.2070055e-06, No Iterations 4
time step continuity errors : sum local = 2.9192123e-05, global = 3.028311e-06, cumulative = 4.8253703e-05
ExecutionTime = 0.83 s  ClockTime = 1 s
Inflow      : -9.3667174e-08 [kg/s]
Outflow     : -9.1141564e-08 [kg/s]
EnergyInflow  : -0.027675109 [W]
EnergyOutflow : -0.026902034 [W]
EnergyBalance : 0.00077307539 [W]
rho max/avg/min : 1.2016404 1.1923922 1.1594767
T   max/avg/min : 304.32888 295.98452 293.70084
P   max/avg/min : 101324.91 101316.16 101307.41
Prg max/avg/min : 101325 101324.93 101324.39
U   max/avg/min : 0.0036836812 0.0020971558 -0.0012241749
Prg max-min : 0.61499397
 
Iteration Number = 22

DILUPBiCG:  Solving for Ux, Initial residual = 0.11472936, Final residual = 3.5349877e-05, No Iterations 2
DILUPBiCG:  Solving for Uy, Initial residual = 0.00049612825, Final residual = 5.4288956e-08, No Iterations 2
DILUPBiCG:  Solving for Uz, Initial residual = 0.11227692, Final residual = 1.0005866e-05, No Iterations 2
DILUPBiCG:  Solving for h, Initial residual = 0.022534204, Final residual = 3.3435729e-06, No Iterations 4
GAMG:  Solving for p_rgh, Initial residual = 0.0057390027, Final residual = 1.3880352e-06, No Iterations 5
time step continuity errors : sum local = 1.014211e-05, global = 5.4411862e-06, cumulative = 5.369489e-05
ExecutionTime = 0.87 s  ClockTime = 1 s
Inflow      : -1.2057278e-07 [kg/s]
Outflow     : -1.1603484e-07 [kg/s]
EnergyInflow  : -0.035624699 [W]
EnergyOutflow : -0.034248074 [W]
EnergyBalance : 0.0013766253 [W]
rho max/avg/min : 1.2016383 1.1919624 1.1585493
T   max/avg/min : 304.57249 296.09301 293.70114
P   max/avg/min : 101324.91 101316.16 101307.41
Prg max/avg/min : 101325 101324.93 101324.37
U   max/avg/min : 0.0043451005 0.0024515199 -0.0015412972
Prg max-min : 0.62832594
 
Iteration Number = 23

DILUPBiCG:  Solving for Ux, Initial residual = 0.11521434, Final residual = 3.733089e-05, No Iterations 2
DILUPBiCG:  Solving for Uy, Initial residual = 0.00055874648, Final residual = 8.4325508e-08, No Iterations 2
DILUPBiCG:  Solving for Uz, Initial residual = 0.10622259, Final residual = 1.1575303e-05, No Iterations 2
DILUPBiCG:  Solving for h, Initial residual = 0.021631899, Final residual = 4.6571335e-06, No Iterations 4
GAMG:  Solving for p_rgh, Initial residual = 0.0060122608, Final residual = 5.4369906e-06, No Iterations 4
time step continuity errors : sum local = 4.1657607e-05, global = 5.1661642e-06, cumulative = 5.8861054e-05
ExecutionTime = 0.9 s  ClockTime = 1 s
Inflow      : -1.4514795e-07 [kg/s]
Outflow     : -1.4083938e-07 [kg/s]
EnergyInflow  : -0.042885734 [W]
EnergyOutflow : -0.041565055 [W]
EnergyBalance : 0.0013206785 [W]
rho max/avg/min : 1.2016353 1.1915341 1.1576472
T   max/avg/min : 304.80982 296.20124 293.70152
P   max/avg/min : 101324.91 101316.16 101307.41
Prg max/avg/min : 101325 101324.93 101324.36
U   max/avg/min : 0.0051013602 0.0028412493 -0.0019205475
Prg max-min : 0.64127747
 
Iteration Number = 24

DILUPBiCG:  Solving for Ux, Initial residual = 0.11554549, Final residual = 3.9790858e-05, No Iterations 2
DILUPBiCG:  Solving for Uy, Initial residual = 0.00072402476, Final residual = 1.1110018e-07, No Iterations 2
DILUPBiCG:  Solving for Uz, Initial residual = 0.099202754, Final residual = 1.1196059e-05, No Iterations 2
DILUPBiCG:  Solving for h, Initial residual = 0.020795732, Final residual = 5.2400423e-06, No Iterations 4
GAMG:  Solving for p_rgh, Initial residual = 0.0064740042, Final residual = 5.2803453e-06, No Iterations 4
time step continuity errors : sum local = 4.2324729e-05, global = 2.182123e-05, cumulative = 8.0682284e-05
ExecutionTime = 0.94 s  ClockTime = 1 s
Inflow      : -1.8252257e-07 [kg/s]
Outflow     : -1.6432368e-07 [kg/s]
EnergyInflow  : -0.053928521 [W]
EnergyOutflow : -0.048487962 [W]
EnergyBalance : 0.0054405597 [W]
rho max/avg/min : 1.2016314 1.1911068 1.1567691
T   max/avg/min : 305.04122 296.30925 293.702
P   max/avg/min : 101324.91 101316.16 101307.41
Prg max/avg/min : 101325 101324.92 101324.35
U   max/avg/min : 0.0059596745 0.0032727536 -0.002347539
Prg max-min : 0.65390388
 
Iteration Number = 25

DILUPBiCG:  Solving for Ux, Initial residual = 0.11000397, Final residual = 4.1958721e-05, No Iterations 2
DILUPBiCG:  Solving for Uy, Initial residual = 0.00083727666, Final residual = 1.4409638e-07, No Iterations 2
DILUPBiCG:  Solving for Uz, Initial residual = 0.092721229, Final residual = 1.0539037e-05, No Iterations 2
DILUPBiCG:  Solving for h, Initial residual = 0.020016363, Final residual = 1.0872046e-05, No Iterations 4
GAMG:  Solving for p_rgh, Initial residual = 0.0066602946, Final residual = 6.3248229e-06, No Iterations 4
time step continuity errors : sum local = 5.293222e-05, global = 1.3747935e-05, cumulative = 9.4430218e-05
ExecutionTime = 0.98 s  ClockTime = 1 s
Inflow      : -2.0985119e-07 [kg/s]
Outflow     : -1.9838542e-07 [kg/s]
EnergyInflow  : -0.062003093 [W]
EnergyOutflow : -0.05853159 [W]
EnergyBalance : 0.0034715028 [W]
rho max/avg/min : 1.2016261 1.1906812 1.1559134
T   max/avg/min : 305.26703 296.41695 293.70262
P   max/avg/min : 101324.91 101316.16 101307.41
Prg max/avg/min : 101325 101324.92 101324.33
U   max/avg/min : 0.0069241624 0.0037404741 -0.002866317
Prg max-min : 0.66613741
 
Iteration Number = 26

DILUPBiCG:  Solving for Ux, Initial residual = 0.10945566, Final residual = 4.5100367e-05, No Iterations 2
DILUPBiCG:  Solving for Uy, Initial residual = 0.00093389495, Final residual = 1.9636092e-07, No Iterations 2
DILUPBiCG:  Solving for Uz, Initial residual = 0.086871359, Final residual = 1.1186151e-05, No Iterations 2
DILUPBiCG:  Solving for h, Initial residual = 0.019277974, Final residual = 9.7851695e-07, No Iterations 5
GAMG:  Solving for p_rgh, Initial residual = 0.0070566956, Final residual = 5.7260663e-06, No Iterations 4
time step continuity errors : sum local = 4.9904699e-05, global = 2.6324982e-05, cumulative = 0.0001207552
ExecutionTime = 1.01 s  ClockTime = 1 s
Inflow      : -2.4958501e-07 [kg/s]
Outflow     : -2.2762999e-07 [kg/s]
EnergyInflow  : -0.073742936 [W]
EnergyOutflow : -0.067146164 [W]
EnergyBalance : 0.006596772 [W]
rho max/avg/min : 1.2016198 1.190257 1.1550784
T   max/avg/min : 305.48771 296.52434 293.70344
P   max/avg/min : 101324.91 101316.16 101307.41
Prg max/avg/min : 101325 101324.92 101324.32
U   max/avg/min : 0.008001888 0.0042535635 -0.0034373203
Prg max-min : 0.67829633
 
Iteration Number = 27

DILUPBiCG:  Solving for Ux, Initial residual = 0.10373056, Final residual = 4.5729063e-05, No Iterations 2
DILUPBiCG:  Solving for Uy, Initial residual = 0.0011426968, Final residual = 3.0144305e-07, No Iterations 2
DILUPBiCG:  Solving for Uz, Initial residual = 0.080741906, Final residual = 9.0436719e-06, No Iterations 2
DILUPBiCG:  Solving for h, Initial residual = 0.018589954, Final residual = 1.1851601e-06, No Iterations 5
GAMG:  Solving for p_rgh, Initial residual = 0.0076799203, Final residual = 7.003874e-06, No Iterations 4
time step continuity errors : sum local = 6.3593037e-05, global = 1.6929402e-05, cumulative = 0.0001376846
ExecutionTime = 1.05 s  ClockTime = 1 s
Inflow      : -2.5900017e-07 [kg/s]
Outflow     : -2.4488106e-07 [kg/s]
EnergyInflow  : -0.076524761 [W]
EnergyOutflow : -0.072207985 [W]
EnergyBalance : 0.0043167758 [W]
rho max/avg/min : 1.2016159 1.1898347 1.1542631
T   max/avg/min : 305.70348 296.63136 293.70453
P   max/avg/min : 101324.91 101316.16 101307.41
Prg max/avg/min : 101325 101324.91 101324.31
U   max/avg/min : 0.0092013378 0.0048096568 -0.0040711545
Prg max-min : 0.69013108
 
Iteration Number = 28

DILUPBiCG:  Solving for Ux, Initial residual = 0.1065108, Final residual = 5.3174614e-05, No Iterations 2
DILUPBiCG:  Solving for Uy, Initial residual = 0.0011792698, Final residual = 3.5409957e-07, No Iterations 2
DILUPBiCG:  Solving for Uz, Initial residual = 0.075906077, Final residual = 9.5295713e-06, No Iterations 2
DILUPBiCG:  Solving for h, Initial residual = 0.017938273, Final residual = 1.0753e-05, No Iterations 5
GAMG:  Solving for p_rgh, Initial residual = 0.0081690361, Final residual = 6.8289648e-06, No Iterations 4
time step continuity errors : sum local = 6.4455017e-05, global = 3.4350176e-05, cumulative = 0.00017203478
ExecutionTime = 1.09 s  ClockTime = 1 s
Inflow      : -3.0297322e-07 [kg/s]
Outflow     : -2.7432519e-07 [kg/s]
EnergyInflow  : -0.089517133 [W]
EnergyOutflow : -0.080862685 [W]
EnergyBalance : 0.0086544482 [W]
rho max/avg/min : 1.2016127 1.1894143 1.1534667
T   max/avg/min : 305.91454 296.73795 293.70603
P   max/avg/min : 101324.91 101316.16 101307.41
Prg max/avg/min : 101325 101324.91 101324.3
U   max/avg/min : 0.010509701 0.0054055897 -0.004793102
Prg max-min : 0.7016711
 
Iteration Number = 29

DILUPBiCG:  Solving for Ux, Initial residual = 0.10114239, Final residual = 5.5635942e-05, No Iterations 2
DILUPBiCG:  Solving for Uy, Initial residual = 0.0013514663, Final residual = 4.8394288e-07, No Iterations 2
DILUPBiCG:  Solving for Uz, Initial residual = 0.07083231, Final residual = 8.7417421e-06, No Iterations 2
DILUPBiCG:  Solving for h, Initial residual = 0.017314418, Final residual = 1.0639025e-05, No Iterations 4
GAMG:  Solving for p_rgh, Initial residual = 0.0083080057, Final residual = 2.311455e-06, No Iterations 5
time step continuity errors : sum local = 2.2599905e-05, global = 1.260608e-05, cumulative = 0.00018464086
ExecutionTime = 1.13 s  ClockTime = 1 s
Inflow      : -2.912165e-07 [kg/s]
Outflow     : -2.8070304e-07 [kg/s]
EnergyInflow  : -0.086043468 [W]
EnergyOutflow : -0.082689498 [W]
EnergyBalance : 0.0033539692 [W]
rho max/avg/min : 1.201609 1.1889963 1.1526877
T   max/avg/min : 306.12131 296.84403 293.70801
P   max/avg/min : 101324.91 101316.16 101307.41
Prg max/avg/min : 101325 101324.91 101324.29
U   max/avg/min : 0.011952843 0.0060513539 -0.0055837921
Prg max-min : 0.71292392
 
Iteration Number = 30

DILUPBiCG:  Solving for Ux, Initial residual = 0.098443629, Final residual = 5.7440754e-05, No Iterations 2
DILUPBiCG:  Solving for Uy, Initial residual = 0.001542794, Final residual = 5.3446451e-07, No Iterations 2
DILUPBiCG:  Solving for Uz, Initial residual = 0.066258002, Final residual = 8.456106e-06, No Iterations 2
DILUPBiCG:  Solving for h, Initial residual = 0.016723775, Final residual = 6.6215161e-06, No Iterations 4
GAMG:  Solving for p_rgh, Initial residual = 0.0083863637, Final residual = 6.9577371e-06, No Iterations 4
time step continuity errors : sum local = 7.0485527e-05, global = 3.6054966e-05, cumulative = 0.00022069582
ExecutionTime = 1.17 s  ClockTime = 1 s
Inflow      : -2.9188962e-07 [kg/s]
Outflow     : -2.618198e-07 [kg/s]
EnergyInflow  : -0.08624235 [W]
EnergyOutflow : -0.07703794 [W]
EnergyBalance : 0.0092044091 [W]
rho max/avg/min : 1.2016062 1.1885808 1.1519254
T   max/avg/min : 306.32387 296.94952 293.70953
P   max/avg/min : 101324.91 101316.16 101307.41
Prg max/avg/min : 101325 101324.91 101324.28
U   max/avg/min : 0.013509755 0.0067442834 -0.0063284399
Prg max-min : 0.72391939
 
Iteration Number = 31

DILUPBiCG:  Solving for Ux, Initial residual = 0.095441496, Final residual = 5.8549867e-05, No Iterations 2
DILUPBiCG:  Solving for Uy, Initial residual = 0.0017426485, Final residual = 1.2274182e-06, No Iterations 2
DILUPBiCG:  Solving for Uz, Initial residual = 0.062266826, Final residual = 8.3858316e-06, No Iterations 2
DILUPBiCG:  Solving for h, Initial residual = 0.01616763, Final residual = 4.84926e-06, No Iterations 4
GAMG:  Solving for p_rgh, Initial residual = 0.0092593436, Final residual = 4.9916277e-06, No Iterations 4
time step continuity errors : sum local = 5.2324815e-05, global = -6.5697946e-06, cumulative = 0.00021412603
ExecutionTime = 1.21 s  ClockTime = 1 s
Inflow      : -2.0384368e-07 [kg/s]
Outflow     : -2.0932289e-07 [kg/s]
EnergyInflow  : -0.060228102 [W]
EnergyOutflow : -0.061433479 [W]
EnergyBalance : -0.0012053768 [W]
rho max/avg/min : 1.2016033 1.188168 1.1511791
T   max/avg/min : 306.52247 297.05442 293.71024
P   max/avg/min : 101324.91 101316.16 101307.41
Prg max/avg/min : 101325 101324.9 101324.27
U   max/avg/min : 0.015183292 0.0074959386 -0.0070901843
Prg max-min : 0.73464154
 
Iteration Number = 32

DILUPBiCG:  Solving for Ux, Initial residual = 0.091596156, Final residual = 6.5110756e-05, No Iterations 2
DILUPBiCG:  Solving for Uy, Initial residual = 0.0020671034, Final residual = 1.2115026e-06, No Iterations 2
DILUPBiCG:  Solving for Uz, Initial residual = 0.058585657, Final residual = 8.4233132e-06, No Iterations 2
DILUPBiCG:  Solving for h, Initial residual = 0.015632616, Final residual = 5.7247836e-06, No Iterations 4
GAMG:  Solving for p_rgh, Initial residual = 0.0084984801, Final residual = 6.7762957e-06, No Iterations 4
time step continuity errors : sum local = 7.4019213e-05, global = -2.5171605e-05, cumulative = 0.00018895443
ExecutionTime = 1.25 s  ClockTime = 1 s
Inflow      : -1.4741572e-07 [kg/s]
Outflow     : -1.6840882e-07 [kg/s]
EnergyInflow  : -0.043555773 [W]
EnergyOutflow : -0.049234913 [W]
EnergyBalance : -0.0056791405 [W]
rho max/avg/min : 1.2016008 1.1877583 1.1504479
T   max/avg/min : 306.71729 297.15862 293.71085
P   max/avg/min : 101324.91 101316.16 101307.41
Prg max/avg/min : 101325 101324.9 101324.26
U   max/avg/min : 0.016981832 0.0082828243 -0.007885818
Prg max-min : 0.74510821
 
Iteration Number = 33

DILUPBiCG:  Solving for Ux, Initial residual = 0.086924028, Final residual = 7.00397e-05, No Iterations 2
DILUPBiCG:  Solving for Uy, Initial residual = 0.0019240471, Final residual = 4.2526548e-08, No Iterations 3
DILUPBiCG:  Solving for Uz, Initial residual = 0.055407403, Final residual = 8.6492724e-06, No Iterations 2
DILUPBiCG:  Solving for h, Initial residual = 0.015120534, Final residual = 6.4248063e-06, No Iterations 4
GAMG:  Solving for p_rgh, Initial residual = 0.0080997163, Final residual = 3.7308168e-06, No Iterations 4
time step continuity errors : sum local = 4.2225912e-05, global = -5.2091003e-07, cumulative = 0.00018843352
ExecutionTime = 1.28 s  ClockTime = 1 s
Inflow      : -8.495059e-08 [kg/s]
Outflow     : -8.5385029e-08 [kg/s]
EnergyInflow  : -0.025099688 [W]
EnergyOutflow : -0.024574338 [W]
EnergyBalance : 0.0005253502 [W]
rho max/avg/min : 1.2015993 1.1873519 1.149731
T   max/avg/min : 306.90854 297.26206 293.71124
P   max/avg/min : 101324.91 101316.16 101307.41
Prg max/avg/min : 101325 101324.9 101324.25
U   max/avg/min : 0.018898508 0.0091155863 -0.0086498009
Prg max-min : 0.75536965
 
Iteration Number = 34

DILUPBiCG:  Solving for Ux, Initial residual = 0.085106802, Final residual = 6.2764684e-05, No Iterations 2
DILUPBiCG:  Solving for Uy, Initial residual = 0.0021093921, Final residual = 1.1921237e-06, No Iterations 2
DILUPBiCG:  Solving for Uz, Initial residual = 0.05190118, Final residual = 8.8804758e-06, No Iterations 2
DILUPBiCG:  Solving for h, Initial residual = 0.014640196, Final residual = 1.1972104e-05, No Iterations 4
GAMG:  Solving for p_rgh, Initial residual = 0.0089258813, Final residual = 6.4722888e-06, No Iterations 4
time step continuity errors : sum local = 7.6087234e-05, global = 2.563023e-05, cumulative = 0.00021406375
ExecutionTime = 1.32 s  ClockTime = 1 s
Inflow      : 2.1480049e-08 [kg/s]
Outflow     : 4.2855645e-08 [kg/s]
EnergyInflow  : 0.0063465426 [W]
EnergyOutflow : 0.013481313 [W]
EnergyBalance : 0.0071347709 [W]
rho max/avg/min : 1.2015973 1.1869486 1.1490276
T   max/avg/min : 307.09641 297.36478 293.71171
P   max/avg/min : 101324.91 101316.16 101307.41
Prg max/avg/min : 101325 101324.89 101324.24
U   max/avg/min : 0.020932255 0.010003354 -0.009367076
Prg max-min : 0.76538343
 
Iteration Number = 35

DILUPBiCG:  Solving for Ux, Initial residual = 0.083247114, Final residual = 7.6450174e-05, No Iterations 2
DILUPBiCG:  Solving for Uy, Initial residual = 0.0023168215, Final residual = 1.5589383e-06, No Iterations 2
DILUPBiCG:  Solving for Uz, Initial residual = 0.049090017, Final residual = 9.0351249e-06, No Iterations 2
DILUPBiCG:  Solving for h, Initial residual = 0.014172642, Final residual = 6.8635115e-06, No Iterations 4
GAMG:  Solving for p_rgh, Initial residual = 0.0080553167, Final residual = 5.2948496e-06, No Iterations 4
time step continuity errors : sum local = 6.4571251e-05, global = 2.7537854e-06, cumulative = 0.00021681753
ExecutionTime = 1.36 s  ClockTime = 2 s
Inflow      : 1.663459e-07 [kg/s]
Outflow     : 1.6864256e-07 [kg/s]
EnergyInflow  : 0.049148926 [W]
EnergyOutflow : 0.050833803 [W]
EnergyBalance : 0.0016848774 [W]
rho max/avg/min : 1.2015952 1.1865493 1.1483374
T   max/avg/min : 307.28101 297.46654 293.71223
P   max/avg/min : 101324.91 101316.16 101307.41
Prg max/avg/min : 101325 101324.89 101324.23
U   max/avg/min : 0.023071141 0.010927536 -0.010078308
Prg max-min : 0.77518494
 
Iteration Number = 36

DILUPBiCG:  Solving for Ux, Initial residual = 0.07582308, Final residual = 6.7186026e-05, No Iterations 2
DILUPBiCG:  Solving for Uy, Initial residual = 0.0027899754, Final residual = 6.7523473e-08, No Iterations 3
DILUPBiCG:  Solving for Uz, Initial residual = 0.046713885, Final residual = 9.0980126e-06, No Iterations 2
DILUPBiCG:  Solving for h, Initial residual = 0.013723536, Final residual = 8.1474583e-06, No Iterations 4
GAMG:  Solving for p_rgh, Initial residual = 0.0074755014, Final residual = 4.2042518e-06, No Iterations 4
time step continuity errors : sum local = 5.319776e-05, global = 1.8182648e-05, cumulative = 0.00023500018
ExecutionTime = 1.39 s  ClockTime = 2 s
Inflow      : 3.3495087e-07 [kg/s]
Outflow     : 3.5011518e-07 [kg/s]
EnergyInflow  : 0.09896532 [W]
EnergyOutflow : 0.10466727 [W]
EnergyBalance : 0.0057019452 [W]
rho max/avg/min : 1.2015943 1.1861542 1.1476596
T   max/avg/min : 307.46248 297.56734 293.71245
P   max/avg/min : 101324.91 101316.16 101307.41
Prg max/avg/min : 101325 101324.89 101324.22
U   max/avg/min : 0.025323391 0.011905449 -0.01073068
Prg max-min : 0.78482939
 
Iteration Number = 37

DILUPBiCG:  Solving for Ux, Initial residual = 0.07201312, Final residual = 6.6432463e-05, No Iterations 2
DILUPBiCG:  Solving for Uy, Initial residual = 0.0029539865, Final residual = 2.9160946e-06, No Iterations 2
DILUPBiCG:  Solving for Uz, Initial residual = 0.044209314, Final residual = 9.6256171e-06, No Iterations 2
DILUPBiCG:  Solving for h, Initial residual = 0.013304477, Final residual = 1.0117663e-05, No Iterations 5
GAMG:  Solving for p_rgh, Initial residual = 0.0086228342, Final residual = 4.3980258e-06, No Iterations 4
time step continuity errors : sum local = 5.7604595e-05, global = -2.0387436e-06, cumulative = 0.00023296143
ExecutionTime = 1.43 s  ClockTime = 2 s
Inflow      : 5.8979985e-07 [kg/s]
Outflow     : 5.8809954e-07 [kg/s]
EnergyInflow  : 0.17426356 [W]
EnergyOutflow : 0.17524894 [W]
EnergyBalance : 0.00098537692 [W]
rho max/avg/min : 1.2015943 1.1857629 1.1469934
T   max/avg/min : 307.64105 297.66724 293.71245
P   max/avg/min : 101324.91 101316.16 101307.41
Prg max/avg/min : 101325 101324.89 101324.21
U   max/avg/min : 0.027705871 0.012935606 -0.011313378
Prg max-min : 0.79423593
 
Iteration Number = 38

DILUPBiCG:  Solving for Ux, Initial residual = 0.067773952, Final residual = 6.2776108e-05, No Iterations 2
DILUPBiCG:  Solving for Uy, Initial residual = 0.0034702265, Final residual = 1.3096251e-07, No Iterations 3
DILUPBiCG:  Solving for Uz, Initial residual = 0.042586676, Final residual = 9.6291745e-06, No Iterations 2
DILUPBiCG:  Solving for h, Initial residual = 0.012887935, Final residual = 8.9024347e-06, No Iterations 4
GAMG:  Solving for p_rgh, Initial residual = 0.007022492, Final residual = 5.1080825e-06, No Iterations 4
time step continuity errors : sum local = 6.8602031e-05, global = 3.4045362e-05, cumulative = 0.0002670068
ExecutionTime = 1.47 s  ClockTime = 2 s
Inflow      : 8.2093465e-07 [kg/s]
Outflow     : 8.4932846e-07 [kg/s]
EnergyInflow  : 0.24255516 [W]
EnergyOutflow : 0.25273133 [W]
EnergyBalance : 0.010176176 [W]
rho max/avg/min : 1.2015957 1.1853766 1.1463388
T   max/avg/min : 307.81672 297.76596 293.71211
P   max/avg/min : 101324.91 101316.16 101307.42
Prg max/avg/min : 101325 101324.88 101324.2
U   max/avg/min : 0.030196053 0.014004542 -0.011811859
Prg max-min : 0.80346531
 
Iteration Number = 39

DILUPBiCG:  Solving for Ux, Initial residual = 0.064436475, Final residual = 4.2580028e-06, No Iterations 3
DILUPBiCG:  Solving for Uy, Initial residual = 0.0033858482, Final residual = 1.1267494e-07, No Iterations 3
DILUPBiCG:  Solving for Uz, Initial residual = 0.040297567, Final residual = 9.7786269e-06, No Iterations 2
DILUPBiCG:  Solving for h, Initial residual = 0.012489555, Final residual = 5.5795601e-06, No Iterations 5
GAMG:  Solving for p_rgh, Initial residual = 0.0064941681, Final residual = 1.5365981e-06, No Iterations 4
time step continuity errors : sum local = 2.1003903e-05, global = -1.517914e-06, cumulative = 0.00026548888
ExecutionTime = 1.5 s  ClockTime = 2 s
Inflow      : 1.1694997e-06 [kg/s]
Outflow     : 1.1682337e-06 [kg/s]
EnergyInflow  : 0.34554294 [W]
EnergyOutflow : 0.347291 [W]
EnergyBalance : 0.0017480566 [W]
rho max/avg/min : 1.2016035 1.1849949 1.1456949
T   max/avg/min : 307.98974 297.86356 293.71019
P   max/avg/min : 101324.91 101316.16 101307.42
Prg max/avg/min : 101325 101324.88 101324.19
U   max/avg/min : 0.032789411 0.015124047 -0.012211071
Prg max-min : 0.81258689
 
Iteration Number = 40

DILUPBiCG:  Solving for Ux, Initial residual = 0.061510363, Final residual = 2.8280621e-06, No Iterations 3
DILUPBiCG:  Solving for Uy, Initial residual = 0.0031121422, Final residual = 1.1692998e-06, No Iterations 3
DILUPBiCG:  Solving for Uz, Initial residual = 0.039462523, Final residual = 9.8492724e-06, No Iterations 2
DILUPBiCG:  Solving for h, Initial residual = 0.01211915, Final residual = 5.8014062e-06, No Iterations 5
GAMG:  Solving for p_rgh, Initial residual = 0.0084959204, Final residual = 5.1837083e-06, No Iterations 4
time step continuity errors : sum local = 7.0046808e-05, global = 4.0549055e-05, cumulative = 0.00030603794
ExecutionTime = 1.55 s  ClockTime = 2 s
Inflow      : 1.5123699e-06 [kg/s]
Outflow     : 1.5461878e-06 [kg/s]
EnergyInflow  : 0.44684813 [W]
EnergyOutflow : 0.45935731 [W]
EnergyBalance : 0.012509178 [W]
rho max/avg/min : 1.201617 1.1846183 1.145061
T   max/avg/min : 308.16023 297.95995 293.7069
P   max/avg/min : 101324.91 101316.16 101307.42
Prg max/avg/min : 101325 101324.88 101324.18
U   max/avg/min : 0.035478512 0.016289394 -0.012610241
Prg max-min : 0.82140944
 
Iteration Number = 41

DILUPBiCG:  Solving for Ux, Initial residual = 0.056912221, Final residual = 4.12266e-06, No Iterations 3
DILUPBiCG:  Solving for Uy, Initial residual = 0.003307897, Final residual = 5.4831401e-07, No Iterations 3
DILUPBiCG:  Solving for Uz, Initial residual = 0.037427906, Final residual = 9.7343185e-06, No Iterations 2
DILUPBiCG:  Solving for h, Initial residual = 0.011750614, Final residual = 1.6941058e-06, No Iterations 6
GAMG:  Solving for p_rgh, Initial residual = 0.0072991165, Final residual = 2.417568e-06, No Iterations 4
time step continuity errors : sum local = 3.226117e-05, global = 1.1470171e-05, cumulative = 0.00031750811
ExecutionTime = 1.59 s  ClockTime = 2 s
Inflow      : 1.9769396e-06 [kg/s]
Outflow     : 1.9865057e-06 [kg/s]
EnergyInflow  : 0.58411093 [W]
EnergyOutflow : 0.58990208 [W]
EnergyBalance : 0.0057911556 [W]
rho max/avg/min : 1.2016268 1.1842471 1.1444374
T   max/avg/min : 308.32816 298.05505 293.7045
P   max/avg/min : 101324.91 101316.16 101307.42
Prg max/avg/min : 101325 101324.87 101324.17
U   max/avg/min : 0.03827305 0.017505219 -0.012798596
Prg max-min : 0.83009925
 
Iteration Number = 42

DILUPBiCG:  Solving for Ux, Initial residual = 0.055132932, Final residual = 2.2106141e-06, No Iterations 3
DILUPBiCG:  Solving for Uy, Initial residual = 0.0035239547, Final residual = 3.4272708e-07, No Iterations 3
DILUPBiCG:  Solving for Uz, Initial residual = 0.037295837, Final residual = 9.7629393e-06, No Iterations 2
DILUPBiCG:  Solving for h, Initial residual = 0.011395442, Final residual = 2.2975988e-06, No Iterations 6
GAMG:  Solving for p_rgh, Initial residual = 0.0071302321, Final residual = 4.4906996e-06, No Iterations 4
time step continuity errors : sum local = 5.8609248e-05, global = 3.7912855e-05, cumulative = 0.00035542096
ExecutionTime = 1.62 s  ClockTime = 2 s
Inflow      : 2.4656427e-06 [kg/s]
Outflow     : 2.497262e-06 [kg/s]
EnergyInflow  : 0.72850422 [W]
EnergyOutflow : 0.74130973 [W]
EnergyBalance : 0.01280551 [W]
rho max/avg/min : 1.2016351 1.1838817 1.1438235
T   max/avg/min : 308.49364 298.14876 293.70249
P   max/avg/min : 101324.91 101316.16 101307.42
Prg max/avg/min : 101325 101324.87 101324.17
U   max/avg/min : 0.04115743 0.018768011 -0.012913683
Prg max-min : 0.83875575
 
Iteration Number = 43

DILUPBiCG:  Solving for Ux, Initial residual = 0.050489571, Final residual = 1.9567051e-05, No Iterations 3
DILUPBiCG:  Solving for Uy, Initial residual = 0.0040063632, Final residual = 1.4897056e-07, No Iterations 3
DILUPBiCG:  Solving for Uz, Initial residual = 0.035878463, Final residual = 9.5625929e-06, No Iterations 2
DILUPBiCG:  Solving for h, Initial residual = 0.011056104, Final residual = 1.0826777e-05, No Iterations 5
GAMG:  Solving for p_rgh, Initial residual = 0.0079976878, Final residual = 2.5482609e-06, No Iterations 4
time step continuity errors : sum local = 3.2843911e-05, global = 1.3432328e-06, cumulative = 0.0003567642
ExecutionTime = 1.67 s  ClockTime = 2 s
Inflow      : 3.053734e-06 [kg/s]
Outflow     : 3.0548542e-06 [kg/s]
EnergyInflow  : 0.90226296 [W]
EnergyOutflow : 0.90660128 [W]
EnergyBalance : 0.0043383232 [W]
rho max/avg/min : 1.2016402 1.183522 1.143218
T   max/avg/min : 308.65704 298.24108 293.70122
P   max/avg/min : 101324.91 101316.16 101307.42
Prg max/avg/min : 101325 101324.87 101324.16
U   max/avg/min : 0.044124879 0.020071376 -0.012912856
Prg max-min : 0.8472562
 
Iteration Number = 44

DILUPBiCG:  Solving for Ux, Initial residual = 0.0505335, Final residual = 1.5464149e-05, No Iterations 3
DILUPBiCG:  Solving for Uy, Initial residual = 0.0047098411, Final residual = 4.6089905e-06, No Iterations 2
DILUPBiCG:  Solving for Uz, Initial residual = 0.035620733, Final residual = 9.5748807e-06, No Iterations 2
DILUPBiCG:  Solving for h, Initial residual = 0.01074036, Final residual = 4.7237169e-06, No Iterations 5
GAMG:  Solving for p_rgh, Initial residual = 0.011061733, Final residual = 2.9744361e-06, No Iterations 4
time step continuity errors : sum local = 3.7887748e-05, global = 1.8331513e-05, cumulative = 0.00037509571
ExecutionTime = 1.7 s  ClockTime = 2 s
Inflow      : 3.6628267e-06 [kg/s]
Outflow     : 3.6781151e-06 [kg/s]
EnergyInflow  : 1.0822268 [W]
EnergyOutflow : 1.0913829 [W]
EnergyBalance : 0.0091560614 [W]
rho max/avg/min : 1.2016433 1.183169 1.1426225
T   max/avg/min : 308.8179 298.3318 293.70047
P   max/avg/min : 101324.91 101316.16 101307.42
Prg max/avg/min : 101325 101324.87 101324.15
U   max/avg/min : 0.047182754 0.021417319 -0.012852074
Prg max-min : 0.85531248
 
Iteration Number = 45

DILUPBiCG:  Solving for Ux, Initial residual = 0.044030733, Final residual = 1.1705682e-05, No Iterations 3
DILUPBiCG:  Solving for Uy, Initial residual = 0.0046914076, Final residual = 1.9097009e-07, No Iterations 3
DILUPBiCG:  Solving for Uz, Initial residual = 0.03494962, Final residual = 9.6581501e-06, No Iterations 2
DILUPBiCG:  Solving for h, Initial residual = 0.010416383, Final residual = 3.0919017e-06, No Iterations 5
GAMG:  Solving for p_rgh, Initial residual = 0.0095252335, Final residual = 3.4470584e-06, No Iterations 4
time step continuity errors : sum local = 4.3396837e-05, global = -5.9572838e-06, cumulative = 0.00036913843
ExecutionTime = 1.74 s  ClockTime = 2 s
Inflow      : 4.3658237e-06 [kg/s]
Outflow     : 4.3608553e-06 [kg/s]
EnergyInflow  : 1.2899359 [W]
EnergyOutflow : 1.2937987 [W]
EnergyBalance : 0.0038627788 [W]
rho max/avg/min : 1.2016448 1.1828225 1.1420357
T   max/avg/min : 308.97657 298.42091 293.70011
P   max/avg/min : 101324.91 101316.16 101307.42
Prg max/avg/min : 101325 101324.86 101324.14
U   max/avg/min : 0.050315627 0.022803143 -0.012887259
Prg max-min : 0.86333391
 
Iteration Number = 46

DILUPBiCG:  Solving for Ux, Initial residual = 0.045009832, Final residual = 1.925921e-05, No Iterations 3
DILUPBiCG:  Solving for Uy, Initial residual = 0.00546111, Final residual = 4.9715971e-06, No Iterations 2
DILUPBiCG:  Solving for Uz, Initial residual = 0.03455702, Final residual = 9.7249021e-06, No Iterations 2
DILUPBiCG:  Solving for h, Initial residual = 0.010094587, Final residual = 9.1530777e-06, No Iterations 5
GAMG:  Solving for p_rgh, Initial residual = 0.0090901354, Final residual = 6.5170681e-06, No Iterations 4
time step continuity errors : sum local = 7.8735658e-05, global = -1.6149355e-05, cumulative = 0.00035298907
ExecutionTime = 1.77 s  ClockTime = 2 s
Inflow      : 5.1912342e-06 [kg/s]
Outflow     : 5.1777657e-06 [kg/s]
EnergyInflow  : 1.5338135 [W]
EnergyOutflow : 1.5359266 [W]
EnergyBalance : 0.0021131572 [W]
rho max/avg/min : 1.2016454 1.1824829 1.1414568
T   max/avg/min : 309.13327 298.50838 293.69995
P   max/avg/min : 101324.91 101316.16 101307.42
Prg max/avg/min : 101325 101324.86 101324.13
U   max/avg/min : 0.053527966 0.024251234 -0.012798183
Prg max-min : 0.87146669
 
Iteration Number = 47

DILUPBiCG:  Solving for Ux, Initial residual = 0.040590481, Final residual = 1.7880766e-05, No Iterations 3
DILUPBiCG:  Solving for Uy, Initial residual = 0.0061790654, Final residual = 2.7367793e-07, No Iterations 3
DILUPBiCG:  Solving for Uz, Initial residual = 0.035545221, Final residual = 1.0637207e-05, No Iterations 2
DILUPBiCG:  Solving for h, Initial residual = 0.0097854217, Final residual = 7.6694871e-06, No Iterations 5
GAMG:  Solving for p_rgh, Initial residual = 0.011404126, Final residual = 5.4202262e-06, No Iterations 4
time step continuity errors : sum local = 6.2801682e-05, global = 1.0473703e-05, cumulative = 0.00036346277
ExecutionTime = 1.81 s  ClockTime = 2 s
Inflow      : 6.0157523e-06 [kg/s]
Outflow     : 6.0244873e-06 [kg/s]
EnergyInflow  : 1.7774274 [W]
EnergyOutflow : 1.7869131 [W]
EnergyBalance : 0.0094856929 [W]
rho max/avg/min : 1.2016457 1.1821507 1.1408864
T   max/avg/min : 309.28784 298.59402 293.69983
P   max/avg/min : 101324.91 101316.16 101307.42
Prg max/avg/min : 101325 101324.86 101324.12
U   max/avg/min : 0.056805193 0.025727493 -0.012609505
Prg max-min : 0.87934312
 
Iteration Number = 48

DILUPBiCG:  Solving for Ux, Initial residual = 0.040209335, Final residual = 1.870957e-05, No Iterations 3
DILUPBiCG:  Solving for Uy, Initial residual = 0.0061526212, Final residual = 3.4601657e-07, No Iterations 3
DILUPBiCG:  Solving for Uz, Initial residual = 0.033445391, Final residual = 1.0011808e-05, No Iterations 2
DILUPBiCG:  Solving for h, Initial residual = 0.0094949136, Final residual = 6.7987143e-06, No Iterations 5
GAMG:  Solving for p_rgh, Initial residual = 0.016693293, Final residual = 5.7563627e-06, No Iterations 4
time step continuity errors : sum local = 6.4346343e-05, global = -1.2921352e-05, cumulative = 0.00035054142
ExecutionTime = 1.85 s  ClockTime = 2 s
Inflow      : 6.9327483e-06 [kg/s]
Outflow     : 6.9219719e-06 [kg/s]
EnergyInflow  : 2.0483651 [W]
EnergyOutflow : 2.0529944 [W]
EnergyBalance : 0.004629343 [W]
rho max/avg/min : 1.2016458 1.1818259 1.1403242
T   max/avg/min : 309.44032 298.67786 293.69968
P   max/avg/min : 101324.91 101316.16 101307.42
Prg max/avg/min : 101325 101324.86 101324.11
U   max/avg/min : 0.060146058 0.027234366 -0.012387501
Prg max-min : 0.88642398
 
Iteration Number = 49

DILUPBiCG:  Solving for Ux, Initial residual = 0.038672005, Final residual = 4.3345798e-06, No Iterations 3
DILUPBiCG:  Solving for Uy, Initial residual = 0.0060479439, Final residual = 4.2412554e-08, No Iterations 4
DILUPBiCG:  Solving for Uz, Initial residual = 0.034244514, Final residual = 1.1320081e-05, No Iterations 2
DILUPBiCG:  Solving for h, Initial residual = 0.0091887936, Final residual = 2.7052437e-06, No Iterations 7
GAMG:  Solving for p_rgh, Initial residual = 0.013947085, Final residual = 3.9897165e-06, No Iterations 4
time step continuity errors : sum local = 4.3861584e-05, global = -6.5906854e-06, cumulative = 0.00034395074
ExecutionTime = 1.89 s  ClockTime = 2 s
Inflow      : 7.8682395e-06 [kg/s]
Outflow     : 7.8627429e-06 [kg/s]
EnergyInflow  : 2.3247673 [W]
EnergyOutflow : 2.3319323 [W]
EnergyBalance : 0.0071649444 [W]
rho max/avg/min : 1.2016458 1.1815091 1.1397702
T   max/avg/min : 309.59071 298.75972 293.69949
P   max/avg/min : 101324.91 101316.16 101307.42
Prg max/avg/min : 101325 101324.85 101324.11
U   max/avg/min : 0.063540263 0.02877184 -0.01216639
Prg max-min : 0.89380038
 
Iteration Number = 50

DILUPBiCG:  Solving for Ux, Initial residual = 0.035296886, Final residual = 2.9844691e-06, No Iterations 3
DILUPBiCG:  Solving for Uy, Initial residual = 0.0056934228, Final residual = 3.4422992e-07, No Iterations 3
DILUPBiCG:  Solving for Uz, Initial residual = 0.032588951, Final residual = 1.1232925e-05, No Iterations 2
DILUPBiCG:  Solving for h, Initial residual = 0.0088918298, Final residual = 4.5376842e-06, No Iterations 6
GAMG:  Solving for p_rgh, Initial residual = 0.015258158, Final residual = 1.1314944e-05, No Iterations 4
time step continuity errors : sum local = 0.00012392482, global = -1.1914427e-05, cumulative = 0.00033203631
ExecutionTime = 1.93 s  ClockTime = 2 s
Inflow      : 8.8305903e-06 [kg/s]
Outflow     : 8.8206536e-06 [kg/s]
EnergyInflow  : 2.6091056 [W]
EnergyOutflow : 2.6159785 [W]
EnergyBalance : 0.006872915 [W]
rho max/avg/min : 1.2016458 1.1812008 1.1392246
T   max/avg/min : 309.739 298.83954 293.69926
P   max/avg/min : 101324.91 101316.16 101307.42
Prg max/avg/min : 101325 101324.85 101324.1
U   max/avg/min : 0.066983126 0.030322012 -0.011656891
Prg max-min : 0.90129664
 
Iteration Number = 51

DILUPBiCG:  Solving for Ux, Initial residual = 0.034512123, Final residual = 3.0932517e-06, No Iterations 3
DILUPBiCG:  Solving for Uy, Initial residual = 0.0055292108, Final residual = 6.7264531e-07, No Iterations 3
DILUPBiCG:  Solving for Uz, Initial residual = 0.032164277, Final residual = 1.1731345e-05, No Iterations 2
DILUPBiCG:  Solving for h, Initial residual = 0.0085882739, Final residual = 5.354857e-06, No Iterations 6
GAMG:  Solving for p_rgh, Initial residual = 0.015376416, Final residual = 6.5046759e-06, No Iterations 4
time step continuity errors : sum local = 6.8017907e-05, global = 8.9318231e-06, cumulative = 0.00034096813
ExecutionTime = 1.96 s  ClockTime = 2 s
Inflow      : 1.0000497e-05 [kg/s]
Outflow     : 1.0007946e-05 [kg/s]
EnergyInflow  : 2.9547687 [W]
EnergyOutflow : 2.9678992 [W]
EnergyBalance : 0.013130517 [W]
rho max/avg/min : 1.2016458 1.1809008 1.1386865
T   max/avg/min : 309.88535 298.91729 293.69902
P   max/avg/min : 101324.91 101316.16 101307.42
Prg max/avg/min : 101325 101324.85 101324.09
U   max/avg/min : 0.070497704 0.031961755 -0.011016918
Prg max-min : 0.91023027
 
Iteration Number = 52

DILUPBiCG:  Solving for Ux, Initial residual = 0.033817757, Final residual = 3.1268678e-06, No Iterations 3
DILUPBiCG:  Solving for Uy, Initial residual = 0.0060488816, Final residual = 6.0862234e-07, No Iterations 3
DILUPBiCG:  Solving for Uz, Initial residual = 0.034685657, Final residual = 1.5143034e-05, No Iterations 2
DILUPBiCG:  Solving for h, Initial residual = 0.0082956088, Final residual = 2.5694601e-06, No Iterations 6
GAMG:  Solving for p_rgh, Initial residual = 0.020634032, Final residual = 9.1093684e-06, No Iterations 4
time step continuity errors : sum local = 8.9956796e-05, global = 6.2866106e-06, cumulative = 0.00034725474
ExecutionTime = 2 s  ClockTime = 2 s
Inflow      : 1.0979952e-05 [kg/s]
Outflow     : 1.0985195e-05 [kg/s]
EnergyInflow  : 3.2441608 [W]
EnergyOutflow : 3.2577645 [W]
EnergyBalance : 0.013603654 [W]
rho max/avg/min : 1.2016459 1.1806094 1.1381556
T   max/avg/min : 310.02991 298.99293 293.69874
P   max/avg/min : 101324.91 101316.16 101307.42
Prg max/avg/min : 101325 101324.84 101324.08
U   max/avg/min : 0.074036314 0.033556206 -0.010554593
Prg max-min : 0.91573577
 
Iteration Number = 53

DILUPBiCG:  Solving for Ux, Initial residual = 0.032662349, Final residual = 3.8465188e-06, No Iterations 3
DILUPBiCG:  Solving for Uy, Initial residual = 0.0065546066, Final residual = 1.484532e-06, No Iterations 3
DILUPBiCG:  Solving for Uz, Initial residual = 0.02817403, Final residual = 1.0407647e-05, No Iterations 2
DILUPBiCG:  Solving for h, Initial residual = 0.0080044502, Final residual = 3.2974057e-06, No Iterations 6
GAMG:  Solving for p_rgh, Initial residual = 0.026707503, Final residual = 6.8408414e-06, No Iterations 4
time step continuity errors : sum local = 6.6125267e-05, global = 2.6045663e-06, cumulative = 0.00034985931
ExecutionTime = 2.04 s  ClockTime = 2 s
Inflow      : 1.2169738e-05 [kg/s]
Outflow     : 1.217191e-05 [kg/s]
EnergyInflow  : 3.5956976 [W]
EnergyOutflow : 3.6096377 [W]
EnergyBalance : 0.013940115 [W]
rho max/avg/min : 1.2016458 1.1803264 1.137632
T   max/avg/min : 310.1726 299.0665 293.6985
P   max/avg/min : 101324.91 101316.16 101307.41
Prg max/avg/min : 101325 101324.84 101324.07
U   max/avg/min : 0.07763033 0.035210003 -0.0096517035
Prg max-min : 0.92694328
 
Iteration Number = 54

DILUPBiCG:  Solving for Ux, Initial residual = 0.030136955, Final residual = 3.1206571e-06, No Iterations 3
DILUPBiCG:  Solving for Uy, Initial residual = 0.0069895853, Final residual = 4.2723749e-07, No Iterations 3
DILUPBiCG:  Solving for Uz, Initial residual = 0.034442983, Final residual = 1.6982487e-05, No Iterations 2
DILUPBiCG:  Solving for h, Initial residual = 0.0076999342, Final residual = 2.6548696e-06, No Iterations 6
GAMG:  Solving for p_rgh, Initial residual = 0.021442315, Final residual = 9.4977951e-06, No Iterations 4
time step continuity errors : sum local = 9.1364163e-05, global = 7.3107742e-06, cumulative = 0.00035717008
ExecutionTime = 2.08 s  ClockTime = 2 s
Inflow      : 1.3389307e-05 [kg/s]
Outflow     : 1.3395405e-05 [kg/s]
EnergyInflow  : 3.9560342 [W]
EnergyOutflow : 3.9724652 [W]
EnergyBalance : 0.016430986 [W]
rho max/avg/min : 1.2016459 1.1800524 1.1371154
T   max/avg/min : 310.31352 299.13785 293.69815
P   max/avg/min : 101324.91 101316.16 101307.42
Prg max/avg/min : 101325 101324.84 101324.07
U   max/avg/min : 0.081274289 0.036913173 -0.008732798
Prg max-min : 0.93294683
 
Iteration Number = 55

DILUPBiCG:  Solving for Ux, Initial residual = 0.028631632, Final residual = 4.2897231e-06, No Iterations 3
DILUPBiCG:  Solving for Uy, Initial residual = 0.0076660385, Final residual = 2.1549355e-06, No Iterations 3
DILUPBiCG:  Solving for Uz, Initial residual = 0.029165316, Final residual = 1.2222323e-05, No Iterations 2
DILUPBiCG:  Solving for h, Initial residual = 0.0073922288, Final residual = 1.372409e-06, No Iterations 7
GAMG:  Solving for p_rgh, Initial residual = 0.023961704, Final residual = 6.9577248e-06, No Iterations 4
time step continuity errors : sum local = 6.2604379e-05, global = 1.5940547e-05, cumulative = 0.00037311063
ExecutionTime = 2.12 s  ClockTime = 2 s
Inflow      : 1.4531398e-05 [kg/s]
Outflow     : 1.4544693e-05 [kg/s]
EnergyInflow  : 4.2934789 [W]
EnergyOutflow : 4.3133626 [W]
EnergyBalance : 0.019883687 [W]
rho max/avg/min : 1.2016459 1.1797875 1.1366056
T   max/avg/min : 310.45269 299.20697 293.69786
P   max/avg/min : 101324.91 101316.16 101307.41
Prg max/avg/min : 101325 101324.84 101324.06
U   max/avg/min : 0.084989267 0.03858272 -0.0071985639
Prg max-min : 0.94199967
 
Iteration Number = 56

DILUPBiCG:  Solving for Ux, Initial residual = 0.025947947, Final residual = 8.4793282e-06, No Iterations 3
DILUPBiCG:  Solving for Uy, Initial residual = 0.0084015781, Final residual = 4.4918952e-07, No Iterations 3
DILUPBiCG:  Solving for Uz, Initial residual = 0.030314073, Final residual = 1.3444867e-05, No Iterations 2
DILUPBiCG:  Solving for h, Initial residual = 0.007098126, Final residual = 4.0690937e-06, No Iterations 7
GAMG:  Solving for p_rgh, Initial residual = 0.02312752, Final residual = 5.3679844e-06, No Iterations 4
time step continuity errors : sum local = 4.671416e-05, global = 1.2257668e-05, cumulative = 0.0003853683
ExecutionTime = 2.16 s  ClockTime = 2 s
Inflow      : 1.5943204e-05 [kg/s]
Outflow     : 1.5953427e-05 [kg/s]
EnergyInflow  : 4.710614 [W]
EnergyOutflow : 4.7310137 [W]
EnergyBalance : 0.020399676 [W]
rho max/avg/min : 1.2016458 1.1795314 1.136103
T   max/avg/min : 310.59004 299.27388 293.69751
P   max/avg/min : 101324.91 101316.16 101307.41
Prg max/avg/min : 101325 101324.83 101324.05
U   max/avg/min : 0.0887991 0.040370253 -0.0059906193
Prg max-min : 0.95202573
 
Iteration Number = 57

DILUPBiCG:  Solving for Ux, Initial residual = 0.023661645, Final residual = 3.0088406e-06, No Iterations 3
DILUPBiCG:  Solving for Uy, Initial residual = 0.008629397, Final residual = 1.0985154e-06, No Iterations 3
DILUPBiCG:  Solving for Uz, Initial residual = 0.03285224, Final residual = 1.5876744e-05, No Iterations 2
DILUPBiCG:  Solving for h, Initial residual = 0.0068031314, Final residual = 2.4419779e-06, No Iterations 8
GAMG:  Solving for p_rgh, Initial residual = 0.023192887, Final residual = 1.9236809e-05, No Iterations 3
time step continuity errors : sum local = 0.00015861044, global = 1.9442776e-05, cumulative = 0.00040481108
ExecutionTime = 2.2 s  ClockTime = 2 s
Inflow      : 1.6951416e-05 [kg/s]
Outflow     : 1.6967632e-05 [kg/s]
EnergyInflow  : 5.0085028 [W]
EnergyOutflow : 5.0320128 [W]
EnergyBalance : 0.023510037 [W]
rho max/avg/min : 1.2016459 1.1792844 1.135607
T   max/avg/min : 310.72567 299.33857 293.69714
P   max/avg/min : 101324.91 101316.16 101307.41
Prg max/avg/min : 101325 101324.83 101324.04
U   max/avg/min : 0.092609827 0.04205529 -0.0048118264
Prg max-min : 0.9557855
 
Iteration Number = 58

DILUPBiCG:  Solving for Ux, Initial residual = 0.02637523, Final residual = 2.9523426e-06, No Iterations 3
DILUPBiCG:  Solving for Uy, Initial residual = 0.0097160883, Final residual = 9.6909857e-07, No Iterations 3
DILUPBiCG:  Solving for Uz, Initial residual = 0.024326175, Final residual = 9.0694845e-06, No Iterations 2
DILUPBiCG:  Solving for h, Initial residual = 0.0065256579, Final residual = 5.5759414e-06, No Iterations 7
GAMG:  Solving for p_rgh, Initial residual = 0.017622781, Final residual = 1.0861095e-05, No Iterations 4
time step continuity errors : sum local = 8.6279576e-05, global = 3.46129e-05, cumulative = 0.00043942398
ExecutionTime = 2.23 s  ClockTime = 2 s
Inflow      : 1.8152659e-05 [kg/s]
Outflow     : 1.8181526e-05 [kg/s]
EnergyInflow  : 5.3634245 [W]
EnergyOutflow : 5.3920611 [W]
EnergyBalance : 0.028636653 [W]
rho max/avg/min : 1.2016458 1.1790459 1.135118
T   max/avg/min : 310.85955 299.40114 293.69685
P   max/avg/min : 101324.91 101316.16 101307.41
Prg max/avg/min : 101325 101324.83 101324.03
U   max/avg/min : 0.096457805 0.043785832 -0.002837952
Prg max-min : 0.96909922
 
Iteration Number = 59

DILUPBiCG:  Solving for Ux, Initial residual = 0.020950158, Final residual = 3.5659241e-06, No Iterations 3
DILUPBiCG:  Solving for Uy, Initial residual = 0.0092194492, Final residual = 6.4805476e-07, No Iterations 3
DILUPBiCG:  Solving for Uz, Initial residual = 0.032330024, Final residual = 1.592498e-05, No Iterations 2
DILUPBiCG:  Solving for h, Initial residual = 0.0062755354, Final residual = 2.4258535e-06, No Iterations 7
GAMG:  Solving for p_rgh, Initial residual = 0.033491529, Final residual = 1.5793323e-05, No Iterations 4
time step continuity errors : sum local = 0.00012124794, global = -2.7039707e-05, cumulative = 0.00041238427
ExecutionTime = 2.26 s  ClockTime = 2 s
Inflow      : 1.9457267e-05 [kg/s]
Outflow     : 1.9434716e-05 [kg/s]
EnergyInflow  : 5.748887 [W]
EnergyOutflow : 5.7637729 [W]
EnergyBalance : 0.014885848 [W]
rho max/avg/min : 1.2016458 1.1788153 1.1346352
T   max/avg/min : 310.99181 299.46173 293.69642
P   max/avg/min : 101324.91 101316.16 101307.41
Prg max/avg/min : 101325 101324.82 101324.03
U   max/avg/min : 0.10044767 0.045583739 -0.00090211861
Prg max-min : 0.97429654
 
Iteration Number = 60

DILUPBiCG:  Solving for Ux, Initial residual = 0.024834624, Final residual = 5.070568e-06, No Iterations 3
DILUPBiCG:  Solving for Uy, Initial residual = 0.0095981415, Final residual = 4.4608185e-07, No Iterations 3
DILUPBiCG:  Solving for Uz, Initial residual = 0.02664746, Final residual = 1.0763623e-05, No Iterations 2
DILUPBiCG:  Solving for h, Initial residual = 0.0060166265, Final residual = 2.9509295e-06, No Iterations 8
GAMG:  Solving for p_rgh, Initial residual = 0.013503433, Final residual = 4.558074e-06, No Iterations 4
time step continuity errors : sum local = 3.3363322e-05, global = -1.8148095e-05, cumulative = 0.00039423617
ExecutionTime = 2.3 s  ClockTime = 2 s
Inflow      : 2.0442671e-05 [kg/s]
Outflow     : 2.0427535e-05 [kg/s]
EnergyInflow  : 6.0400364 [W]
EnergyOutflow : 6.0584926 [W]
EnergyBalance : 0.018456225 [W]
rho max/avg/min : 1.2016458 1.1785932 1.1341591
T   max/avg/min : 311.12235 299.52022 293.69608
P   max/avg/min : 101324.91 101316.16 101307.41
Prg max/avg/min : 101325 101324.82 101324.02
U   max/avg/min : 0.10451069 0.047275686 0
Prg max-min : 0.98182255
 
Iteration Number = 61

DILUPBiCG:  Solving for Ux, Initial residual = 0.024044539, Final residual = 1.1987757e-05, No Iterations 3
DILUPBiCG:  Solving for Uy, Initial residual = 0.0099264887, Final residual = 2.3116269e-06, No Iterations 3
DILUPBiCG:  Solving for Uz, Initial residual = 0.025138484, Final residual = 1.0072363e-05, No Iterations 2
DILUPBiCG:  Solving for h, Initial residual = 0.0057908341, Final residual = 3.5320605e-06, No Iterations 8
GAMG:  Solving for p_rgh, Initial residual = 0.0097303208, Final residual = 4.1088329e-06, No Iterations 4
time step continuity errors : sum local = 2.9632194e-05, global = -9.5575864e-06, cumulative = 0.00038467859
ExecutionTime = 2.35 s  ClockTime = 3 s
Inflow      : 2.1374763e-05 [kg/s]
Outflow     : 2.1366792e-05 [kg/s]
EnergyInflow  : 6.3154346 [W]
EnergyOutflow : 6.3372777 [W]
EnergyBalance : 0.021843129 [W]
rho max/avg/min : 1.2016458 1.1783785 1.1336888
T   max/avg/min : 311.25144 299.57688 293.69571
P   max/avg/min : 101324.91 101316.16 101307.41
Prg max/avg/min : 101325 101324.82 101324.01
U   max/avg/min : 0.10861698 0.048954501 0
Prg max-min : 0.98977459
 
Iteration Number = 62

DILUPBiCG:  Solving for Ux, Initial residual = 0.02228645, Final residual = 2.1203795e-05, No Iterations 2
DILUPBiCG:  Solving for Uy, Initial residual = 0.0098450018, Final residual = 7.8346439e-07, No Iterations 3
DILUPBiCG:  Solving for Uz, Initial residual = 0.024441075, Final residual = 9.7221048e-06, No Iterations 2
DILUPBiCG:  Solving for h, Initial residual = 0.0055781637, Final residual = 5.289954e-06, No Iterations 6
GAMG:  Solving for p_rgh, Initial residual = 0.0088313331, Final residual = 5.4995592e-06, No Iterations 4
time step continuity errors : sum local = 3.9231099e-05, global = -5.4550235e-06, cumulative = 0.00037922356
ExecutionTime = 2.38 s  ClockTime = 3 s
Inflow      : 2.2217452e-05 [kg/s]
Outflow     : 2.2212903e-05 [kg/s]
EnergyInflow  : 6.5644173 [W]
EnergyOutflow : 6.5884205 [W]
EnergyBalance : 0.024003158 [W]
rho max/avg/min : 1.2016458 1.1781708 1.1332248
T   max/avg/min : 311.37886 299.63176 293.69535
P   max/avg/min : 101324.91 101316.16 101307.41
Prg max/avg/min : 101325 101324.82 101324
U   max/avg/min : 0.11274233 0.050605457 0
Prg max-min : 0.99665518
 
Iteration Number = 63

DILUPBiCG:  Solving for Ux, Initial residual = 0.024189354, Final residual = 2.3935934e-05, No Iterations 2
DILUPBiCG:  Solving for Uy, Initial residual = 0.0098508559, Final residual = 5.1008291e-07, No Iterations 3
DILUPBiCG:  Solving for Uz, Initial residual = 0.022409714, Final residual = 8.7143061e-06, No Iterations 2
DILUPBiCG:  Solving for h, Initial residual = 0.0053750757, Final residual = 3.9382353e-06, No Iterations 6
GAMG:  Solving for p_rgh, Initial residual = 0.0080667021, Final residual = 2.6993818e-06, No Iterations 5
time step continuity errors : sum local = 1.9057572e-05, global = -5.7699372e-06, cumulative = 0.00037345363
ExecutionTime = 2.41 s  ClockTime = 3 s
Inflow      : 2.2953237e-05 [kg/s]
Outflow     : 2.2948425e-05 [kg/s]
EnergyInflow  : 6.781814 [W]
EnergyOutflow : 6.8067491 [W]
EnergyBalance : 0.024935059 [W]
rho max/avg/min : 1.2016458 1.1779697 1.1327672
T   max/avg/min : 311.50465 299.68502 293.69499
P   max/avg/min : 101324.91 101316.16 101307.41
Prg max/avg/min : 101325 101324.82 101324
U   max/avg/min : 0.11687769 0.052214886 0
Prg max-min : 1.0038537
 
Iteration Number = 64

DILUPBiCG:  Solving for Ux, Initial residual = 0.021063116, Final residual = 1.0860573e-06, No Iterations 3
DILUPBiCG:  Solving for Uy, Initial residual = 0.0096347731, Final residual = 1.2816048e-06, No Iterations 3
DILUPBiCG:  Solving for Uz, Initial residual = 0.021149152, Final residual = 8.2463225e-06, No Iterations 2
DILUPBiCG:  Solving for h, Initial residual = 0.0051758235, Final residual = 3.0593059e-06, No Iterations 6
GAMG:  Solving for p_rgh, Initial residual = 0.008106797, Final residual = 2.0252362e-06, No Iterations 5
time step continuity errors : sum local = 1.420477e-05, global = -6.6773412e-06, cumulative = 0.00036677629
ExecutionTime = 2.45 s  ClockTime = 3 s
Inflow      : 2.3577183e-05 [kg/s]
Outflow     : 2.3571614e-05 [kg/s]
EnergyInflow  : 6.9661664 [W]
EnergyOutflow : 6.9917335 [W]
EnergyBalance : 0.025567087 [W]
rho max/avg/min : 1.2016458 1.1777744 1.1323157
T   max/avg/min : 311.62884 299.73678 293.69466
P   max/avg/min : 101324.91 101316.16 101307.41
Prg max/avg/min : 101325 101324.82 101323.99
U   max/avg/min : 0.12103674 0.05377865 0
Prg max-min : 1.0102927
 
Iteration Number = 65

DILUPBiCG:  Solving for Ux, Initial residual = 0.023600282, Final residual = 2.251574e-05, No Iterations 2
DILUPBiCG:  Solving for Uy, Initial residual = 0.0096410147, Final residual = 7.8533772e-07, No Iterations 3
DILUPBiCG:  Solving for Uz, Initial residual = 0.019288636, Final residual = 7.5890439e-06, No Iterations 2
DILUPBiCG:  Solving for h, Initial residual = 0.0049799382, Final residual = 2.4690038e-06, No Iterations 6
GAMG:  Solving for p_rgh, Initial residual = 0.0081792422, Final residual = 4.0165168e-06, No Iterations 4
time step continuity errors : sum local = 2.8009861e-05, global = -2.3756828e-05, cumulative = 0.00034301946
ExecutionTime = 2.5 s  ClockTime = 3 s
Inflow      : 2.4146085e-05 [kg/s]
Outflow     : 2.4126272e-05 [kg/s]
EnergyInflow  : 7.1342554 [W]
EnergyOutflow : 7.1563347 [W]
EnergyBalance : 0.022079373 [W]
rho max/avg/min : 1.2016458 1.1775846 1.1318703
T   max/avg/min : 311.75148 299.78718 293.69433
P   max/avg/min : 101324.91 101316.16 101307.41
Prg max/avg/min : 101325 101324.81 101323.98
U   max/avg/min : 0.12521334 0.055311536 0
Prg max-min : 1.0176803
 
Iteration Number = 66

DILUPBiCG:  Solving for Ux, Initial residual = 0.020991995, Final residual = 2.0593535e-05, No Iterations 2
DILUPBiCG:  Solving for Uy, Initial residual = 0.0099202113, Final residual = 8.0705592e-07, No Iterations 3
DILUPBiCG:  Solving for Uz, Initial residual = 0.018717993, Final residual = 7.3172018e-06, No Iterations 2
DILUPBiCG:  Solving for h, Initial residual = 0.0047864328, Final residual = 1.9157194e-06, No Iterations 6
GAMG:  Solving for p_rgh, Initial residual = 0.0080867052, Final residual = 2.6082327e-06, No Iterations 5
time step continuity errors : sum local = 1.8145285e-05, global = -4.3636838e-06, cumulative = 0.00033865577
ExecutionTime = 2.54 s  ClockTime = 3 s
Inflow      : 2.4638488e-05 [kg/s]
Outflow     : 2.4634849e-05 [kg/s]
EnergyInflow  : 7.2797419 [W]
EnergyOutflow : 7.3072064 [W]
EnergyBalance : 0.0274645 [W]
rho max/avg/min : 1.2016458 1.1773997 1.1314309
T   max/avg/min : 311.87256 299.83631 293.69402
P   max/avg/min : 101324.91 101316.16 101307.41
Prg max/avg/min : 101325 101324.81 101323.98
U   max/avg/min : 0.12940102 0.056815843 0
Prg max-min : 1.0239206
 
Iteration Number = 67

DILUPBiCG:  Solving for Ux, Initial residual = 0.021482, Final residual = 2.0283648e-05, No Iterations 2
DILUPBiCG:  Solving for Uy, Initial residual = 0.0094222261, Final residual = 5.7753982e-07, No Iterations 3
DILUPBiCG:  Solving for Uz, Initial residual = 0.017197781, Final residual = 6.6898593e-06, No Iterations 2
DILUPBiCG:  Solving for h, Initial residual = 0.0045971515, Final residual = 1.5178366e-06, No Iterations 6
GAMG:  Solving for p_rgh, Initial residual = 0.0078016627, Final residual = 2.6034109e-06, No Iterations 4
time step continuity errors : sum local = 1.804086e-05, global = 5.1829705e-06, cumulative = 0.00034383874
ExecutionTime = 2.58 s  ClockTime = 3 s
Inflow      : 2.5119596e-05 [kg/s]
Outflow     : 2.5123919e-05 [kg/s]
EnergyInflow  : 7.4218912 [W]
EnergyOutflow : 7.4522273 [W]
EnergyBalance : 0.030336063 [W]
rho max/avg/min : 1.2016458 1.1772196 1.1309974
T   max/avg/min : 311.9921 299.88425 293.69374
P   max/avg/min : 101324.91 101316.16 101307.41
Prg max/avg/min : 101325 101324.81 101323.97
U   max/avg/min : 0.13360449 0.058301449 0
Prg max-min : 1.0313424
 
Iteration Number = 68

DILUPBiCG:  Solving for Ux, Initial residual = 0.020288273, Final residual = 1.4926652e-06, No Iterations 3
DILUPBiCG:  Solving for Uy, Initial residual = 0.0095823079, Final residual = 1.3281567e-06, No Iterations 3
DILUPBiCG:  Solving for Uz, Initial residual = 0.017038165, Final residual = 6.6454666e-06, No Iterations 2
DILUPBiCG:  Solving for h, Initial residual = 0.0044120237, Final residual = 9.7195157e-07, No Iterations 6
GAMG:  Solving for p_rgh, Initial residual = 0.0075212954, Final residual = 7.0036437e-06, No Iterations 4
time step continuity errors : sum local = 4.8521607e-05, global = -1.4548412e-06, cumulative = 0.0003423839
ExecutionTime = 2.63 s  ClockTime = 3 s
Inflow      : 2.5602801e-05 [kg/s]
Outflow     : 2.5601588e-05 [kg/s]
EnergyInflow  : 7.5646599 [W]
EnergyOutflow : 7.5938154 [W]
EnergyBalance : 0.029155424 [W]
rho max/avg/min : 1.2016458 1.1770439 1.1305697
T   max/avg/min : 312.1101 299.93104 293.69347
P   max/avg/min : 101324.91 101316.16 101307.41
Prg max/avg/min : 101325 101324.81 101323.96
U   max/avg/min : 0.1378267 0.059778703 0
Prg max-min : 1.0377224
 
Iteration Number = 69

DILUPBiCG:  Solving for Ux, Initial residual = 0.02004595, Final residual = 1.1950946e-06, No Iterations 3
[...]
time step continuity errors : sum local = 1.7363969e-06, global = -6.6336227e-08, cumulative = 5.6252477e-05
ExecutionTime = 24.36 s  ClockTime = 25 s
Inflow      : 3.5899297e-05 [kg/s]
Outflow     : 3.5899241e-05 [kg/s]
EnergyInflow  : 10.606885 [W]
EnergyOutflow : 10.660358 [W]
EnergyBalance : 0.053472486 [W]
rho max/avg/min : 1.2016458 1.1737066 1.1135448
T   max/avg/min : 316.88193 300.8618 293.68722
P   max/avg/min : 101324.91 101316.16 101307.4
Prg max/avg/min : 101325 101324.78 101323.71
U   max/avg/min : 0.5122966 0.16768184 0
Prg max-min : 1.2887448
 
Iteration Number = 653

DILUPBiCG:  Solving for Ux, Initial residual = 8.2850956e-06, Final residual = 1.8827442e-07, No Iterations 1
DILUPBiCG:  Solving for Uy, Initial residual = 0.012543801, Final residual = 3.8775814e-06, No Iterations 3
DILUPBiCG:  Solving for Uz, Initial residual = 9.8112363e-06, Final residual = 2.7460753e-07, No Iterations 1
DILUPBiCG:  Solving for h, Initial residual = 1.2256081e-06, Final residual = 3.8110041e-07, No Iterations 1
GAMG:  Solving for p_rgh, Initial residual = 1.554598e-06, Final residual = 2.9216001e-07, No Iterations 1
time step continuity errors : sum local = 1.7223853e-06, global = -6.5024166e-08, cumulative = 5.6187452e-05
ExecutionTime = 24.39 s  ClockTime = 25 s
Inflow      : 3.5900869e-05 [kg/s]
Outflow     : 3.5900815e-05 [kg/s]
EnergyInflow  : 10.60735 [W]
EnergyOutflow : 10.660822 [W]
EnergyBalance : 0.053472662 [W]
rho max/avg/min : 1.2016458 1.1737067 1.1135452
T   max/avg/min : 316.88182 300.86177 293.68722
P   max/avg/min : 101324.91 101316.16 101307.4
Prg max/avg/min : 101325 101324.78 101323.71
U   max/avg/min : 0.51230044 0.167684 0
Prg max-min : 1.2887395
 
Iteration Number = 654

DILUPBiCG:  Solving for Ux, Initial residual = 8.1234641e-06, Final residual = 1.8439755e-07, No Iterations 1
DILUPBiCG:  Solving for Uy, Initial residual = 0.013039421, Final residual = 9.5668504e-07, No Iterations 3
DILUPBiCG:  Solving for Uz, Initial residual = 9.7539104e-06, Final residual = 2.7044775e-07, No Iterations 1
DILUPBiCG:  Solving for h, Initial residual = 1.2091607e-06, Final residual = 3.7608147e-07, No Iterations 1
GAMG:  Solving for p_rgh, Initial residual = 1.5390462e-06, Final residual = 2.9028752e-07, No Iterations 1
time step continuity errors : sum local = 1.7099121e-06, global = -6.4268831e-08, cumulative = 5.6123184e-05
ExecutionTime = 24.42 s  ClockTime = 25 s
Inflow      : 3.5902437e-05 [kg/s]
Outflow     : 3.5902383e-05 [kg/s]
EnergyInflow  : 10.607813 [W]
EnergyOutflow : 10.661286 [W]
EnergyBalance : 0.053472704 [W]
rho max/avg/min : 1.2016458 1.1737068 1.1135456
T   max/avg/min : 316.88172 300.86174 293.68722
P   max/avg/min : 101324.91 101316.16 101307.4
Prg max/avg/min : 101325 101324.78 101323.71
U   max/avg/min : 0.51230424 0.16768614 0
Prg max-min : 1.2887343
 
Iteration Number = 655

DILUPBiCG:  Solving for Ux, Initial residual = 8.1753198e-06, Final residual = 1.8596258e-07, No Iterations 1
DILUPBiCG:  Solving for Uy, Initial residual = 0.013150989, Final residual = 1.5117647e-06, No Iterations 3
DILUPBiCG:  Solving for Uz, Initial residual = 9.6961294e-06, Final residual = 2.6602125e-07, No Iterations 1
DILUPBiCG:  Solving for h, Initial residual = 1.1931222e-06, Final residual = 3.7134298e-07, No Iterations 1
GAMG:  Solving for p_rgh, Initial residual = 1.5230926e-06, Final residual = 2.8799784e-07, No Iterations 1
time step continuity errors : sum local = 1.6980768e-06, global = -6.485603e-08, cumulative = 5.6058328e-05
ExecutionTime = 24.46 s  ClockTime = 25 s
Inflow      : 3.5903999e-05 [kg/s]
Outflow     : 3.5903945e-05 [kg/s]
EnergyInflow  : 10.608274 [W]
EnergyOutflow : 10.661747 [W]
EnergyBalance : 0.053472419 [W]
rho max/avg/min : 1.2016458 1.1737069 1.1135459
T   max/avg/min : 316.88162 300.86171 293.68722
P   max/avg/min : 101324.91 101316.16 101307.4
Prg max/avg/min : 101325 101324.78 101323.71
U   max/avg/min : 0.512308 0.16768826 0
Prg max-min : 1.2887292
 
Iteration Number = 656

DILUPBiCG:  Solving for Ux, Initial residual = 8.0753799e-06, Final residual = 1.8303443e-07, No Iterations 1
DILUPBiCG:  Solving for Uy, Initial residual = 0.012912499, Final residual = 8.449859e-07, No Iterations 3
DILUPBiCG:  Solving for Uz, Initial residual = 9.6395651e-06, Final residual = 2.6184868e-07, No Iterations 1
DILUPBiCG:  Solving for h, Initial residual = 1.1773586e-06, Final residual = 3.6656619e-07, No Iterations 1
GAMG:  Solving for p_rgh, Initial residual = 1.5073107e-06, Final residual = 2.8617565e-07, No Iterations 1
time step continuity errors : sum local = 1.6862028e-06, global = -6.485758e-08, cumulative = 5.599347e-05
ExecutionTime = 24.49 s  ClockTime = 25 s
Inflow      : 3.5905555e-05 [kg/s]
Outflow     : 3.5905501e-05 [kg/s]
EnergyInflow  : 10.608734 [W]
EnergyOutflow : 10.662206 [W]
EnergyBalance : 0.05347228 [W]
rho max/avg/min : 1.2016458 1.173707 1.1135463
T   max/avg/min : 316.88152 300.86169 293.68722
P   max/avg/min : 101324.91 101316.16 101307.4
Prg max/avg/min : 101325 101324.78 101323.71
U   max/avg/min : 0.51231172 0.16769037 0
Prg max-min : 1.2887242
 
Iteration Number = 657

DILUPBiCG:  Solving for Ux, Initial residual = 8.0501307e-06, Final residual = 1.8234594e-07, No Iterations 1
DILUPBiCG:  Solving for Uy, Initial residual = 0.013041631, Final residual = 9.2496808e-07, No Iterations 3
DILUPBiCG:  Solving for Uz, Initial residual = 9.5827558e-06, Final residual = 2.5812541e-07, No Iterations 1
DILUPBiCG:  Solving for h, Initial residual = 1.161961e-06, Final residual = 3.6136423e-07, No Iterations 1
GAMG:  Solving for p_rgh, Initial residual = 1.4913717e-06, Final residual = 2.8304156e-07, No Iterations 1
time step continuity errors : sum local = 1.6716041e-06, global = -6.4054892e-08, cumulative = 5.5929415e-05
ExecutionTime = 24.53 s  ClockTime = 25 s
Inflow      : 3.5907104e-05 [kg/s]
Outflow     : 3.5907051e-05 [kg/s]
EnergyInflow  : 10.609192 [W]
EnergyOutflow : 10.662664 [W]
EnergyBalance : 0.053472343 [W]
rho max/avg/min : 1.2016458 1.1737071 1.1135466
T   max/avg/min : 316.88142 300.86166 293.68722
P   max/avg/min : 101324.91 101316.16 101307.4
Prg max/avg/min : 101325 101324.78 101323.71
U   max/avg/min : 0.51231539 0.16769246 0
Prg max-min : 1.2887192
 
Iteration Number = 658

DILUPBiCG:  Solving for Ux, Initial residual = 7.9700055e-06, Final residual = 1.8247733e-07, No Iterations 1
DILUPBiCG:  Solving for Uy, Initial residual = 0.012274283, Final residual = 1.1029211e-06, No Iterations 3
DILUPBiCG:  Solving for Uz, Initial residual = 9.5260346e-06, Final residual = 2.5448424e-07, No Iterations 1
DILUPBiCG:  Solving for h, Initial residual = 1.1466677e-06, Final residual = 3.5665066e-07, No Iterations 1
GAMG:  Solving for p_rgh, Initial residual = 1.4764667e-06, Final residual = 2.8081307e-07, No Iterations 1
time step continuity errors : sum local = 1.6594595e-06, global = -6.4233706e-08, cumulative = 5.5865181e-05
ExecutionTime = 24.56 s  ClockTime = 25 s
Inflow      : 3.5908648e-05 [kg/s]
Outflow     : 3.5908595e-05 [kg/s]
EnergyInflow  : 10.609648 [W]
EnergyOutflow : 10.66312 [W]
EnergyBalance : 0.053472167 [W]
rho max/avg/min : 1.2016458 1.1737072 1.113547
T   max/avg/min : 316.88132 300.86163 293.68722
P   max/avg/min : 101324.91 101316.16 101307.4
Prg max/avg/min : 101325 101324.78 101323.71
U   max/avg/min : 0.51231902 0.16769454 0
Prg max-min : 1.2887143
 
Iteration Number = 659

DILUPBiCG:  Solving for Ux, Initial residual = 7.9613292e-06, Final residual = 1.8213751e-07, No Iterations 1
DILUPBiCG:  Solving for Uy, Initial residual = 0.012993147, Final residual = 6.778541e-07, No Iterations 3
DILUPBiCG:  Solving for Uz, Initial residual = 9.4696392e-06, Final residual = 2.5082301e-07, No Iterations 1
DILUPBiCG:  Solving for h, Initial residual = 1.1316676e-06, Final residual = 3.5216222e-07, No Iterations 1
GAMG:  Solving for p_rgh, Initial residual = 1.4614918e-06, Final residual = 2.7905012e-07, No Iterations 1
time step continuity errors : sum local = 1.6478244e-06, global = -6.337499e-08, cumulative = 5.5801806e-05
ExecutionTime = 24.59 s  ClockTime = 25 s
Inflow      : 3.5910186e-05 [kg/s]
Outflow     : 3.5910133e-05 [kg/s]
EnergyInflow  : 10.610103 [W]
EnergyOutflow : 10.663575 [W]
EnergyBalance : 0.053472249 [W]
rho max/avg/min : 1.2016458 1.1737073 1.1135473
T   max/avg/min : 316.88122 300.86161 293.68722
P   max/avg/min : 101324.91 101316.16 101307.4
Prg max/avg/min : 101325 101324.78 101323.71
U   max/avg/min : 0.51232261 0.1676966 0
Prg max-min : 1.2887095
 
Iteration Number = 660

DILUPBiCG:  Solving for Ux, Initial residual = 7.8995429e-06, Final residual = 1.793525e-07, No Iterations 1
DILUPBiCG:  Solving for Uy, Initial residual = 0.013243946, Final residual = 3.2149696e-06, No Iterations 3
DILUPBiCG:  Solving for Uz, Initial residual = 9.4134859e-06, Final residual = 2.4730822e-07, No Iterations 1
DILUPBiCG:  Solving for h, Initial residual = 1.1172626e-06, Final residual = 3.4781625e-07, No Iterations 1
GAMG:  Solving for p_rgh, Initial residual = 1.4494023e-06, Final residual = 2.7703199e-07, No Iterations 1
time step continuity errors : sum local = 1.6370322e-06, global = -6.2152344e-08, cumulative = 5.5739654e-05
ExecutionTime = 24.63 s  ClockTime = 25 s
Inflow      : 3.5911718e-05 [kg/s]
Outflow     : 3.5911666e-05 [kg/s]
EnergyInflow  : 10.610555 [W]
EnergyOutflow : 10.664028 [W]
EnergyBalance : 0.053472424 [W]
rho max/avg/min : 1.2016458 1.1737074 1.1135476
T   max/avg/min : 316.88113 300.86158 293.68722
P   max/avg/min : 101324.91 101316.16 101307.4
Prg max/avg/min : 101325 101324.78 101323.71
U   max/avg/min : 0.51232616 0.16769865 0
Prg max-min : 1.2887048
 
Iteration Number = 661

DILUPBiCG:  Solving for Ux, Initial residual = 7.794612e-06, Final residual = 1.7662973e-07, No Iterations 1
DILUPBiCG:  Solving for Uy, Initial residual = 0.013217325, Final residual = 7.70759e-07, No Iterations 3
DILUPBiCG:  Solving for Uz, Initial residual = 9.3576209e-06, Final residual = 2.4398285e-07, No Iterations 1
DILUPBiCG:  Solving for h, Initial residual = 1.1030079e-06, Final residual = 3.4346639e-07, No Iterations 1
GAMG:  Solving for p_rgh, Initial residual = 1.4344708e-06, Final residual = 2.7614939e-07, No Iterations 1
time step continuity errors : sum local = 1.6255531e-06, global = -6.1367767e-08, cumulative = 5.5678286e-05
ExecutionTime = 24.66 s  ClockTime = 25 s
Inflow      : 3.5913244e-05 [kg/s]
Outflow     : 3.5913192e-05 [kg/s]
EnergyInflow  : 10.611006 [W]
EnergyOutflow : 10.664478 [W]
EnergyBalance : 0.053472494 [W]
rho max/avg/min : 1.2016458 1.1737075 1.113548
T   max/avg/min : 316.88104 300.86155 293.68722
P   max/avg/min : 101324.91 101316.16 101307.4
Prg max/avg/min : 101325 101324.78 101323.71
U   max/avg/min : 0.51232967 0.16770068 0
Prg max-min : 1.2887001
 
Iteration Number = 662

DILUPBiCG:  Solving for Ux, Initial residual = 7.7846765e-06, Final residual = 1.7712671e-07, No Iterations 1
DILUPBiCG:  Solving for Uy, Initial residual = 0.01218264, Final residual = 9.4948874e-07, No Iterations 3
DILUPBiCG:  Solving for Uz, Initial residual = 9.3033819e-06, Final residual = 2.4074836e-07, No Iterations 1
DILUPBiCG:  Solving for h, Initial residual = 1.0889592e-06, Final residual = 3.3932547e-07, No Iterations 1
GAMG:  Solving for p_rgh, Initial residual = 1.422454e-06, Final residual = 2.7475233e-07, No Iterations 1
time step continuity errors : sum local = 1.6151444e-06, global = -5.9499141e-08, cumulative = 5.5618787e-05
ExecutionTime = 24.69 s  ClockTime = 25 s
Inflow      : 3.5914763e-05 [kg/s]
Outflow     : 3.5914714e-05 [kg/s]
EnergyInflow  : 10.611455 [W]
EnergyOutflow : 10.664928 [W]
EnergyBalance : 0.053472833 [W]
rho max/avg/min : 1.2016458 1.1737076 1.1135483
T   max/avg/min : 316.88095 300.86153 293.68722
P   max/avg/min : 101324.91 101316.16 101307.4
Prg max/avg/min : 101325 101324.78 101323.71
U   max/avg/min : 0.51233314 0.1677027 0
Prg max-min : 1.2886955
 
Iteration Number = 663

DILUPBiCG:  Solving for Ux, Initial residual = 7.7141376e-06, Final residual = 1.7540851e-07, No Iterations 1
DILUPBiCG:  Solving for Uy, Initial residual = 0.01322201, Final residual = 2.5934241e-06, No Iterations 3
DILUPBiCG:  Solving for Uz, Initial residual = 9.2497986e-06, Final residual = 2.3772484e-07, No Iterations 1
DILUPBiCG:  Solving for h, Initial residual = 1.0752063e-06, Final residual = 3.3502724e-07, No Iterations 1
GAMG:  Solving for p_rgh, Initial residual = 1.4085295e-06, Final residual = 2.7247379e-07, No Iterations 1
time step continuity errors : sum local = 1.603214e-06, global = -5.7321386e-08, cumulative = 5.5561466e-05
ExecutionTime = 24.73 s  ClockTime = 25 s
Inflow      : 3.5916277e-05 [kg/s]
Outflow     : 3.5916229e-05 [kg/s]
EnergyInflow  : 10.611902 [W]
EnergyOutflow : 10.665375 [W]
EnergyBalance : 0.053473251 [W]
rho max/avg/min : 1.2016458 1.1737077 1.1135486
T   max/avg/min : 316.88086 300.8615 293.68722
P   max/avg/min : 101324.91 101316.16 101307.4
Prg max/avg/min : 101325 101324.78 101323.71
U   max/avg/min : 0.51233658 0.1677047 0
Prg max-min : 1.288691
 
Iteration Number = 664

DILUPBiCG:  Solving for Ux, Initial residual = 7.6817213e-06, Final residual = 1.7556428e-07, No Iterations 1
DILUPBiCG:  Solving for Uy, Initial residual = 0.013390642, Final residual = 9.1651603e-07, No Iterations 3
DILUPBiCG:  Solving for Uz, Initial residual = 9.1955798e-06, Final residual = 2.3463637e-07, No Iterations 1
DILUPBiCG:  Solving for h, Initial residual = 1.0616669e-06, Final residual = 3.3075258e-07, No Iterations 1
GAMG:  Solving for p_rgh, Initial residual = 1.3953506e-06, Final residual = 2.7108598e-07, No Iterations 1
time step continuity errors : sum local = 1.5930494e-06, global = -5.6069674e-08, cumulative = 5.5505396e-05
ExecutionTime = 24.76 s  ClockTime = 25 s
Inflow      : 3.5917785e-05 [kg/s]
Outflow     : 3.5917738e-05 [kg/s]
EnergyInflow  : 10.612348 [W]
EnergyOutflow : 10.665821 [W]
EnergyBalance : 0.053473443 [W]
rho max/avg/min : 1.2016458 1.1737078 1.1135489
T   max/avg/min : 316.88077 300.86148 293.68722
P   max/avg/min : 101324.91 101316.16 101307.4
Prg max/avg/min : 101325 101324.78 101323.71
U   max/avg/min : 0.51233997 0.16770669 0
Prg max-min : 1.2886865
 
Iteration Number = 665

DILUPBiCG:  Solving for Ux, Initial residual = 7.675004e-06, Final residual = 1.7350884e-07, No Iterations 1
DILUPBiCG:  Solving for Uy, Initial residual = 0.012908546, Final residual = 1.415372e-06, No Iterations 3
DILUPBiCG:  Solving for Uz, Initial residual = 9.1426013e-06, Final residual = 2.3162643e-07, No Iterations 1
DILUPBiCG:  Solving for h, Initial residual = 1.0484032e-06, Final residual = 3.2652205e-07, No Iterations 1
GAMG:  Solving for p_rgh, Initial residual = 1.3838379e-06, Final residual = 2.681935e-07, No Iterations 1
time step continuity errors : sum local = 1.5827125e-06, global = -5.5413017e-08, cumulative = 5.5449983e-05
ExecutionTime = 24.79 s  ClockTime = 25 s
Inflow      : 3.5919289e-05 [kg/s]
Outflow     : 3.5919242e-05 [kg/s]
EnergyInflow  : 10.612792 [W]
EnergyOutflow : 10.666265 [W]
EnergyBalance : 0.05347349 [W]
rho max/avg/min : 1.2016458 1.1737079 1.1135492
T   max/avg/min : 316.88068 300.86145 293.68722
P   max/avg/min : 101324.91 101316.16 101307.4
Prg max/avg/min : 101325 101324.78 101323.71
U   max/avg/min : 0.51234333 0.16770867 0
Prg max-min : 1.2886821
 
Iteration Number = 666

DILUPBiCG:  Solving for Ux, Initial residual = 7.5783595e-06, Final residual = 1.7452134e-07, No Iterations 1
DILUPBiCG:  Solving for Uy, Initial residual = 0.013281898, Final residual = 7.5868763e-07, No Iterations 3
DILUPBiCG:  Solving for Uz, Initial residual = 9.0902788e-06, Final residual = 2.2845205e-07, No Iterations 1
DILUPBiCG:  Solving for h, Initial residual = 1.0352912e-06, Final residual = 3.2217184e-07, No Iterations 1
GAMG:  Solving for p_rgh, Initial residual = 1.3714939e-06, Final residual = 2.6667462e-07, No Iterations 1
time step continuity errors : sum local = 1.5691738e-06, global = -5.3920178e-08, cumulative = 5.5396063e-05
ExecutionTime = 24.83 s  ClockTime = 25 s
Inflow      : 3.5920786e-05 [kg/s]
Outflow     : 3.5920741e-05 [kg/s]
EnergyInflow  : 10.613234 [W]
EnergyOutflow : 10.666708 [W]
EnergyBalance : 0.053473746 [W]
rho max/avg/min : 1.2016458 1.1737079 1.1135495
T   max/avg/min : 316.88059 300.86143 293.68722
P   max/avg/min : 101324.91 101316.16 101307.4
Prg max/avg/min : 101325 101324.78 101323.71
U   max/avg/min : 0.51234665 0.16771063 0
Prg max-min : 1.2886778
 
Iteration Number = 667

DILUPBiCG:  Solving for Ux, Initial residual = 7.5169444e-06, Final residual = 1.7143496e-07, No Iterations 1
DILUPBiCG:  Solving for Uy, Initial residual = 0.013669633, Final residual = 1.4990886e-06, No Iterations 3
DILUPBiCG:  Solving for Uz, Initial residual = 9.0388324e-06, Final residual = 2.2573973e-07, No Iterations 1
DILUPBiCG:  Solving for h, Initial residual = 1.0225021e-06, Final residual = 3.1851891e-07, No Iterations 1
GAMG:  Solving for p_rgh, Initial residual = 1.3597523e-06, Final residual = 2.648105e-07, No Iterations 1
time step continuity errors : sum local = 1.5609575e-06, global = -5.2983603e-08, cumulative = 5.5343079e-05
ExecutionTime = 24.86 s  ClockTime = 25 s
Inflow      : 3.5922278e-05 [kg/s]
Outflow     : 3.5922233e-05 [kg/s]
EnergyInflow  : 10.613675 [W]
EnergyOutflow : 10.667149 [W]
EnergyBalance : 0.053473868 [W]
rho max/avg/min : 1.2016458 1.173708 1.1135498
T   max/avg/min : 316.88051 300.86141 293.68722
P   max/avg/min : 101324.91 101316.16 101307.4
Prg max/avg/min : 101325 101324.78 101323.71
U   max/avg/min : 0.51234993 0.16771258 0
Prg max-min : 1.2886735
 
Iteration Number = 668

DILUPBiCG:  Solving for Ux, Initial residual = 7.5067696e-06, Final residual = 1.713695e-07, No Iterations 1
DILUPBiCG:  Solving for Uy, Initial residual = 0.013452046, Final residual = 1.05558e-06, No Iterations 3
DILUPBiCG:  Solving for Uz, Initial residual = 8.9879231e-06, Final residual = 2.2292422e-07, No Iterations 1
DILUPBiCG:  Solving for h, Initial residual = 1.0100027e-06, Final residual = 3.1494726e-07, No Iterations 1
GAMG:  Solving for p_rgh, Initial residual = 1.3484284e-06, Final residual = 2.6354562e-07, No Iterations 1
time step continuity errors : sum local = 1.5525898e-06, global = -5.1746754e-08, cumulative = 5.5291333e-05
ExecutionTime = 24.89 s  ClockTime = 25 s
Inflow      : 3.5923764e-05 [kg/s]
Outflow     : 3.5923721e-05 [kg/s]
EnergyInflow  : 10.614114 [W]
EnergyOutflow : 10.667588 [W]
EnergyBalance : 0.053474066 [W]
rho max/avg/min : 1.2016458 1.1737081 1.1135501
T   max/avg/min : 316.88042 300.86138 293.68722
P   max/avg/min : 101324.91 101316.16 101307.4
Prg max/avg/min : 101325 101324.78 101323.71
U   max/avg/min : 0.51235318 0.16771451 0
Prg max-min : 1.2886693
 
Iteration Number = 669

DILUPBiCG:  Solving for Ux, Initial residual = 7.4464888e-06, Final residual = 1.6899341e-07, No Iterations 1
DILUPBiCG:  Solving for Uy, Initial residual = 0.013130229, Final residual = 2.5756929e-06, No Iterations 3
DILUPBiCG:  Solving for Uz, Initial residual = 8.9370927e-06, Final residual = 2.2017593e-07, No Iterations 1
DILUPBiCG:  Solving for h, Initial residual = 9.978459e-07, Final residual = 9.978459e-07, No Iterations 0
GAMG:  Solving for p_rgh, Initial residual = 5.2526735e-07, Final residual = 5.2526735e-07, No Iterations 0
time step continuity errors : sum local = 3.0920238e-06, global = 1.272278e-06, cumulative = 5.6563611e-05
ExecutionTime = 24.92 s  ClockTime = 25 s
Inflow      : 3.5924141e-05 [kg/s]
Outflow     : 3.5925202e-05 [kg/s]
EnergyInflow  : 10.614226 [W]
EnergyOutflow : 10.668026 [W]
EnergyBalance : 0.053800222 [W]
rho max/avg/min : 1.2016458 1.1737081 1.1135501
T   max/avg/min : 316.88042 300.86138 293.68722
P   max/avg/min : 101324.91 101316.16 101307.4
Prg max/avg/min : 101325 101324.78 101323.71
U   max/avg/min : 0.5123564 0.16771643 0
Prg max-min : 1.2886693
 

SIMPLE solution converged in 669 iterations

End

