/*---------------------------------------------------------------------------*\
| =========                 |                                                 |
| \\      /  F ield         | OpenFOAM: The Open Source CFD Toolbox           |
|  \\    /   O peration     | Version:  4.0                                   |
|   \\  /    A nd           | Web:      www.OpenFOAM.org                      |
|    \\/     M anipulation  |                                                 |
\*---------------------------------------------------------------------------*/
Build  : 4.0-665f1db4c1f1
Exec   : pupoBuoyantSimpleFoam
Date   : Sep 26 2016
Time   : 22:32:57
Host   : "FAB2000"
PID    : 11915
Case   : /home/pedro/Documents/ThesisProject/OpenFoam/validation1rod/P1-Model
nProcs : 1
sigFpe : Enabling floating point exception trapping (FOAM_SIGFPE).
fileModificationChecking : Monitoring run-time modified files using timeStampMaster
allowSystemOperations : Allowing user-supplied system call operations

// * * * * * * * * * * * * * * * * * * * * * * * * * * * * * * * * * * * * * //
Create time

Create mesh for time = 0


SIMPLE: convergence criteria
    field p_rgh	 tolerance 1e-06
    field Uz	 tolerance 1e-06
    field h	 tolerance 1e-06

Reading thermophysical properties

Selecting thermodynamics package 
{
    type            heRhoThermo;
    mixture         pureMixture;
    transport       sutherland;
    thermo          hConst;
    equationOfState perfectGas;
    specie          specie;
    energy          sensibleEnthalpy;
}


Reading g

Reading hRef
Calculating field g.h

Selecting turbulence model type laminar
No MRF models present

Selecting radiationModel P1
Selecting absorptionEmissionModel constantAbsorptionEmission
Selecting scatterModel none
 
rho max/avg/min : 1.2016452 1.2015414 1.2014377
T   max/avg/min : 293.7 293.7 293.7
P   max/avg/min : 101324.91 101316.16 101307.41
Prg max/avg/min : 101325 101325 101325
U   max/avg/min : 0 0 0
 
sngrad(rho) :-0.00013977519 -0.00013977519 -0.00013977519
 
No finite volume options present


Starting Iteration loop

Iteration Number = 1

DILUPBiCG:  Solving for Ux, Initial residual = 2.3034354e-10, Final residual = 2.3034354e-10, No Iterations 0
DILUPBiCG:  Solving for Uy, Initial residual = 4.8698736e-07, Final residual = 2.590422e-09, No Iterations 1
DILUPBiCG:  Solving for Uz, Initial residual = 1, Final residual = 0.0001017747, No Iterations 2
DILUPBiCG:  Solving for h, Initial residual = 1, Final residual = 0.00045973816, No Iterations 1
GAMG:  Solving for G, Initial residual = 1, Final residual = 0.0057401987, No Iterations 1000
GAMG:  Solving for p_rgh, Initial residual = 0.81992243, Final residual = 0.00041149554, No Iterations 2
time step continuity errors : sum local = 0.00010135598, global = -2.3031724e-05, cumulative = -2.3031724e-05
ExecutionTime = 0.86 s  ClockTime = 1 s
Inflow      : -1.2313738e-07 [kg/s]
Outflow     : -1.4234582e-07 [kg/s]
EnergyInflow  : -0.036382441 [W]
EnergyOutflow : -0.04205781 [W]
EnergyBalance : -0.0056753692 [W]
rho max/avg/min : 1.2016452 1.1953618 1.0955956
T   max/avg/min : 322.07345 295.29785 293.7
P   max/avg/min : 101324.91 101316.16 101307.41
Prg max/avg/min : 101325 101324.95 101323.45
U   max/avg/min : 8.164709e-05 -4.1758272e-05 -0.00052602945
Prg max-min : 1.5504991
 
sngrad(rho) :14.112139 0.82397835 -0.00013681317
 
Iteration Number = 2

DILUPBiCG:  Solving for Ux, Initial residual = 0.34589004, Final residual = 2.586122e-05, No Iterations 2
DILUPBiCG:  Solving for Uy, Initial residual = 5.6683365e-05, Final residual = 4.1166414e-09, No Iterations 2
DILUPBiCG:  Solving for Uz, Initial residual = 0.36583984, Final residual = 1.0688835e-05, No Iterations 2
DILUPBiCG:  Solving for h, Initial residual = 0.24598351, Final residual = 6.1866198e-05, No Iterations 1
GAMG:  Solving for p_rgh, Initial residual = 0.025927392, Final residual = 1.6005654e-05, No Iterations 3
time step continuity errors : sum local = 6.8402765e-05, global = 2.4773976e-05, cumulative = 1.7422515e-06
ExecutionTime = 0.89 s  ClockTime = 1 s
Inflow      : -2.4387915e-07 [kg/s]
Outflow     : -2.2321767e-07 [kg/s]
EnergyInflow  : -0.072057071 [W]
EnergyOutflow : -0.065952384 [W]
EnergyBalance : 0.0061046866 [W]
rho max/avg/min : 1.2016452 1.1899732 1.0498701
T   max/avg/min : 336.10154 296.76761 293.70001
P   max/avg/min : 101324.91 101316.16 101307.41
Prg max/avg/min : 101325 101324.91 101322.78
U   max/avg/min : 0.00023803762 -5.602919e-05 -0.00057928764
Prg max-min : 2.2200307
 
sngrad(rho) :20.204359 1.5414692 -0.00013321162
 
Iteration Number = 3

DILUPBiCG:  Solving for Ux, Initial residual = 0.36186699, Final residual = 3.5036978e-05, No Iterations 2
DILUPBiCG:  Solving for Uy, Initial residual = 6.8759329e-05, Final residual = 7.084205e-09, No Iterations 2
DILUPBiCG:  Solving for Uz, Initial residual = 0.17382374, Final residual = 2.0908687e-06, No Iterations 2
DILUPBiCG:  Solving for h, Initial residual = 0.15988589, Final residual = 4.7549676e-05, No Iterations 1
GAMG:  Solving for p_rgh, Initial residual = 0.01264166, Final residual = 1.1583337e-05, No Iterations 2
time step continuity errors : sum local = 8.7230467e-05, global = 1.5041445e-05, cumulative = 1.6783697e-05
ExecutionTime = 0.91 s  ClockTime = 1 s
Inflow      : -1.9016483e-07 [kg/s]
Outflow     : -1.7762027e-07 [kg/s]
EnergyInflow  : -0.056186518 [W]
EnergyOutflow : -0.052479409 [W]
EnergyBalance : 0.0037071086 [W]
rho max/avg/min : 1.2016452 1.1847465 1.0177742
T   max/avg/min : 346.70097 298.23719 293.70002
P   max/avg/min : 101324.91 101316.16 101307.41
Prg max/avg/min : 101325 101324.88 101322.31
U   max/avg/min : 0.0004481802 7.595613e-06 -0.00045725351
Prg max-min : 2.6906666
 
sngrad(rho) :4.5621964 0.70264947 -0.00013025064
 
Iteration Number = 4

DILUPBiCG:  Solving for Ux, Initial residual = 0.2202652, Final residual = 1.2842317e-05, No Iterations 2
DILUPBiCG:  Solving for Uy, Initial residual = 6.365186e-05, Final residual = 5.4803634e-09, No Iterations 2
DILUPBiCG:  Solving for Uz, Initial residual = 0.26080126, Final residual = 2.6663081e-06, No Iterations 2
DILUPBiCG:  Solving for h, Initial residual = 0.11706787, Final residual = 4.4803965e-05, No Iterations 1
GAMG:  Solving for p_rgh, Initial residual = 0.0081161799, Final residual = 2.9275044e-06, No Iterations 3
time step continuity errors : sum local = 3.131084e-05, global = -1.0945918e-05, cumulative = 5.8377781e-06
ExecutionTime = 0.95 s  ClockTime = 1 s
Inflow      : -1.3217505e-07 [kg/s]
Outflow     : -1.4130394e-07 [kg/s]
EnergyInflow  : -0.039052731 [W]
EnergyOutflow : -0.041747999 [W]
EnergyBalance : -0.0026952686 [W]
rho max/avg/min : 1.2016451 1.1796026 0.99228208
T   max/avg/min : 355.6086 299.71821 293.70002
P   max/avg/min : 101324.91 101316.16 101307.41
Prg max/avg/min : 101325 101324.84 101321.94
U   max/avg/min : 0.00071887423 9.738126e-05 -0.00034575968
Prg max-min : 3.0637232
 
sngrad(rho) :3.7387803 0.68967583 -0.0001276456
 
Iteration Number = 5

DILUPBiCG:  Solving for Ux, Initial residual = 0.253662, Final residual = 1.0367525e-05, No Iterations 2
DILUPBiCG:  Solving for Uy, Initial residual = 4.6736967e-05, Final residual = 3.7764856e-09, No Iterations 2
DILUPBiCG:  Solving for Uz, Initial residual = 0.19376708, Final residual = 5.4759401e-07, No Iterations 2
DILUPBiCG:  Solving for h, Initial residual = 0.093066128, Final residual = 4.6994002e-05, No Iterations 1
GAMG:  Solving for p_rgh, Initial residual = 0.0061125123, Final residual = 5.3104556e-06, No Iterations 3
time step continuity errors : sum local = 7.3301225e-05, global = 2.685633e-05, cumulative = 3.2694108e-05
ExecutionTime = 0.98 s  ClockTime = 1 s
Inflow      : -1.3853635e-07 [kg/s]
Outflow     : -1.1613819e-07 [kg/s]
EnergyInflow  : -0.040932256 [W]
EnergyOutflow : -0.034309928 [W]
EnergyBalance : 0.0066223281 [W]
rho max/avg/min : 1.2016451 1.1745154 0.97084287
T   max/avg/min : 363.4623 301.21277 293.70002
P   max/avg/min : 101324.91 101316.16 101307.41
Prg max/avg/min : 101325 101324.8 101321.62
U   max/avg/min : 0.0010500191 0.00021217154 -0.00033153042
Prg max-min : 3.3777298
 
sngrad(rho) :3.2125567 0.6807601 -0.00012763752
 
Iteration Number = 6

DILUPBiCG:  Solving for Ux, Initial residual = 0.20133373, Final residual = 5.7964989e-06, No Iterations 2
DILUPBiCG:  Solving for Uy, Initial residual = 5.0961999e-05, Final residual = 3.5968841e-09, No Iterations 2
DILUPBiCG:  Solving for Uz, Initial residual = 0.18739795, Final residual = 5.5292793e-07, No Iterations 2
DILUPBiCG:  Solving for h, Initial residual = 0.077633213, Final residual = 5.1251909e-05, No Iterations 1
GAMG:  Solving for p_rgh, Initial residual = 0.0051177317, Final residual = 1.6908316e-06, No Iterations 3
time step continuity errors : sum local = 2.8593216e-05, global = 5.2364645e-06, cumulative = 3.7930573e-05
ExecutionTime = 1.01 s  ClockTime = 1 s
Inflow      : -9.8975325e-08 [kg/s]
Outflow     : -9.4608116e-08 [kg/s]
EnergyInflow  : -0.029243467 [W]
EnergyOutflow : -0.027944161 [W]
EnergyBalance : 0.001299306 [W]
rho max/avg/min : 1.2016451 1.1694731 0.95219854
T   max/avg/min : 370.57813 302.72078 293.70002
P   max/avg/min : 101324.91 101316.16 101307.41
Prg max/avg/min : 101325 101324.76 101321.35
U   max/avg/min : 0.0014419989 0.00037563978 -0.00026610858
Prg max-min : 3.6507162
 
sngrad(rho) :2.8568342 0.67527807 -0.00012834359
 
Iteration Number = 7

DILUPBiCG:  Solving for Ux, Initial residual = 0.15455061, Final residual = 4.8373499e-06, No Iterations 2
DILUPBiCG:  Solving for Uy, Initial residual = 6.3094868e-05, Final residual = 3.5556602e-09, No Iterations 2
DILUPBiCG:  Solving for Uz, Initial residual = 0.18477369, Final residual = 6.5661377e-07, No Iterations 2
DILUPBiCG:  Solving for h, Initial residual = 0.066858635, Final residual = 5.7999759e-05, No Iterations 1
GAMG:  Solving for p_rgh, Initial residual = 0.0045441305, Final residual = 1.3019008e-06, No Iterations 4
time step continuity errors : sum local = 2.605168e-05, global = 3.6827805e-06, cumulative = 4.1613354e-05
ExecutionTime = 1.03 s  ClockTime = 1 s
Inflow      : -8.2418718e-08 [kg/s]
Outflow     : -7.9347281e-08 [kg/s]
EnergyInflow  : -0.024351616 [W]
EnergyOutflow : -0.023427873 [W]
EnergyBalance : 0.00092374245 [W]
rho max/avg/min : 1.2016451 1.1644699 0.93563078
T   max/avg/min : 377.14007 304.24147 293.70002
P   max/avg/min : 101324.91 101316.16 101307.41
Prg max/avg/min : 101325 101324.73 101321.11
U   max/avg/min : 0.0019116377 0.00059256172 -0.00023722393
Prg max-min : 3.8931999
 
sngrad(rho) :2.5900371 0.66995998 -0.00012782741
 
Iteration Number = 8

DILUPBiCG:  Solving for Ux, Initial residual = 0.14161143, Final residual = 4.6411839e-06, No Iterations 2
DILUPBiCG:  Solving for Uy, Initial residual = 7.4343987e-05, Final residual = 2.8423811e-09, No Iterations 2
DILUPBiCG:  Solving for Uz, Initial residual = 0.17327543, Final residual = 7.2824276e-05, No Iterations 1
DILUPBiCG:  Solving for h, Initial residual = 0.058893302, Final residual = 1.1354226e-06, No Iterations 2
GAMG:  Solving for p_rgh, Initial residual = 0.0041980346, Final residual = 1.2000267e-06, No Iterations 4
time step continuity errors : sum local = 2.7720933e-05, global = -1.2363553e-07, cumulative = 4.1489718e-05
ExecutionTime = 1.07 s  ClockTime = 1 s
Inflow      : -6.6847529e-08 [kg/s]
Outflow     : -6.6950641e-08 [kg/s]
EnergyInflow  : -0.019750918 [W]
EnergyOutflow : -0.019753688 [W]
EnergyBalance : -2.7697074e-06 [W]
rho max/avg/min : 1.2016451 1.1594944 0.92068476
T   max/avg/min : 383.26406 305.77585 293.70003
P   max/avg/min : 101324.91 101316.16 101307.41
Prg max/avg/min : 101325 101324.69 101320.89
U   max/avg/min : 0.0024767801 0.00087544475 -0.00023827351
Prg max-min : 4.1119595
 
sngrad(rho) :2.3768855 0.66624829 -0.00012442683
 
Iteration Number = 9

DILUPBiCG:  Solving for Ux, Initial residual = 0.12300309, Final residual = 4.0879364e-06, No Iterations 2
DILUPBiCG:  Solving for Uy, Initial residual = 0.00010796069, Final residual = 2.3811095e-09, No Iterations 2
DILUPBiCG:  Solving for Uz, Initial residual = 0.16521496, Final residual = 6.7365625e-05, No Iterations 1
DILUPBiCG:  Solving for h, Initial residual = 0.05276985, Final residual = 1.6520347e-06, No Iterations 2
GAMG:  Solving for p_rgh, Initial residual = 0.0040154796, Final residual = 1.1600841e-06, No Iterations 4
time step continuity errors : sum local = 3.0383475e-05, global = 8.6343524e-06, cumulative = 5.012407e-05
ExecutionTime = 1.1 s  ClockTime = 1 s
Inflow      : -6.4594521e-08 [kg/s]
Outflow     : -5.7393476e-08 [kg/s]
EnergyInflow  : -0.019085239 [W]
EnergyOutflow : -0.016912426 [W]
EnergyBalance : 0.002172813 [W]
rho max/avg/min : 1.201645 1.1545509 0.90703637
T   max/avg/min : 389.03385 307.32151 293.70005
P   max/avg/min : 101324.91 101316.16 101307.41
Prg max/avg/min : 101325 101324.65 101320.69
U   max/avg/min : 0.0031570073 0.0012418599 -0.00025393104
Prg max-min : 4.3117118
 
sngrad(rho) :2.2109871 0.66306598 -0.00011490228
 
Iteration Number = 10

DILUPBiCG:  Solving for Ux, Initial residual = 0.094337923, Final residual = 3.0836859e-06, No Iterations 2
DILUPBiCG:  Solving for Uy, Initial residual = 0.00015628669, Final residual = 2.4154615e-09, No Iterations 2
DILUPBiCG:  Solving for Uz, Initial residual = 0.16032553, Final residual = 8.7173953e-05, No Iterations 1
DILUPBiCG:  Solving for h, Initial residual = 0.047870155, Final residual = 2.5502662e-06, No Iterations 2
GAMG:  Solving for G, Initial residual = 0.76694336, Final residual = 0.080082839, No Iterations 1000
GAMG:  Solving for p_rgh, Initial residual = 0.0039398159, Final residual = 1.1205663e-06, No Iterations 4
time step continuity errors : sum local = 3.2787863e-05, global = 5.7240516e-06, cumulative = 5.5848122e-05
ExecutionTime = 1.9 s  ClockTime = 2 s
Inflow      : -5.3986864e-08 [kg/s]
Outflow     : -4.9213008e-08 [kg/s]
EnergyInflow  : -0.015951077 [W]
EnergyOutflow : -0.014469283 [W]
EnergyBalance : 0.0014817943 [W]
rho max/avg/min : 1.2016449 1.1496379 0.89445853
T   max/avg/min : 394.50833 308.87758 293.70008
P   max/avg/min : 101324.91 101316.16 101307.41
Prg max/avg/min : 101325 101324.62 101320.5
U   max/avg/min : 0.0039780173 0.0017066496 -0.00030152579
Prg max-min : 4.4957179
 
sngrad(rho) :2.0674597 0.66107301 -9.4627782e-05
 
Iteration Number = 11

DILUPBiCG:  Solving for Ux, Initial residual = 0.094481582, Final residual = 3.3067052e-06, No Iterations 2
DILUPBiCG:  Solving for Uy, Initial residual = 0.00021427313, Final residual = 3.237825e-09, No Iterations 2
DILUPBiCG:  Solving for Uz, Initial residual = 0.15693184, Final residual = 0.00011631925, No Iterations 1
DILUPBiCG:  Solving for h, Initial residual = 0.061090859, Final residual = 4.037397e-06, No Iterations 2
GAMG:  Solving for p_rgh, Initial residual = 0.0051607959, Final residual = 2.3111641e-06, No Iterations 4
time step continuity errors : sum local = 7.4685827e-05, global = 2.6350522e-05, cumulative = 8.2198644e-05
ExecutionTime = 1.93 s  ClockTime = 2 s
Inflow      : -6.4943704e-08 [kg/s]
Outflow     : -4.2967384e-08 [kg/s]
EnergyInflow  : -0.01918841 [W]
EnergyOutflow : -0.012585441 [W]
EnergyBalance : 0.0066029687 [W]
rho max/avg/min : 1.2016446 1.1462277 0.90651964
T   max/avg/min : 389.26464 309.84524 293.70015
P   max/avg/min : 101324.91 101316.16 101307.41
Prg max/avg/min : 101325 101324.59 101320.68
U   max/avg/min : 0.004976361 0.002284698 -0.00043819141
Prg max-min : 4.3189469
 
sngrad(rho) :1.7574906 0.46320521 -1.6082253
 
Iteration Number = 12

DILUPBiCG:  Solving for Ux, Initial residual = 0.08624127, Final residual = 3.2426319e-06, No Iterations 2
DILUPBiCG:  Solving for Uy, Initial residual = 0.00032884903, Final residual = 4.8071534e-09, No Iterations 2
DILUPBiCG:  Solving for Uz, Initial residual = 0.15423424, Final residual = 1.3121031e-06, No Iterations 2
DILUPBiCG:  Solving for h, Initial residual = 0.030925615, Final residual = 6.0396838e-06, No Iterations 2
GAMG:  Solving for p_rgh, Initial residual = 0.0046141259, Final residual = 1.9890803e-06, No Iterations 4
time step continuity errors : sum local = 6.8555105e-05, global = 1.5785856e-05, cumulative = 9.7984501e-05
ExecutionTime = 1.96 s  ClockTime = 2 s
Inflow      : -5.1301217e-08 [kg/s]
Outflow     : -3.8135823e-08 [kg/s]
EnergyInflow  : -0.01515757 [W]
EnergyOutflow : -0.011103336 [W]
EnergyBalance : 0.0040542349 [W]
rho max/avg/min : 1.201644 1.1428412 0.90812657
T   max/avg/min : 388.58286 310.83716 293.70028
P   max/avg/min : 101324.91 101316.16 101307.41
Prg max/avg/min : 101325 101324.57 101320.7
U   max/avg/min : 0.0061737245 0.0029956231 -0.00060524895
Prg max-min : 4.2951812
 
sngrad(rho) :1.5385787 0.46414575 -0.21433728
 
Iteration Number = 13

DILUPBiCG:  Solving for Ux, Initial residual = 0.083760291, Final residual = 3.5887153e-06, No Iterations 2
DILUPBiCG:  Solving for Uy, Initial residual = 0.00046662098, Final residual = 9.3859405e-09, No Iterations 2
DILUPBiCG:  Solving for Uz, Initial residual = 0.15234345, Final residual = 1.5736235e-06, No Iterations 2
DILUPBiCG:  Solving for h, Initial residual = 0.023719394, Final residual = 7.8524931e-06, No Iterations 2
GAMG:  Solving for p_rgh, Initial residual = 0.0046952466, Final residual = 3.1942244e-06, No Iterations 4
time step continuity errors : sum local = 0.00011689432, global = 4.6891345e-05, cumulative = 0.00014487585
ExecutionTime = 2 s  ClockTime = 2 s
Inflow      : -7.4002056e-08 [kg/s]
Outflow     : -3.4894703e-08 [kg/s]
EnergyInflow  : -0.02186481 [W]
EnergyOutflow : -0.010067749 [W]
EnergyBalance : 0.011797061 [W]
rho max/avg/min : 1.201643 1.1395083 0.90696208
T   max/avg/min : 389.09076 311.829 293.7005
P   max/avg/min : 101324.91 101316.16 101307.41
Prg max/avg/min : 101325 101324.54 101320.69
U   max/avg/min : 0.0076121422 0.0038532826 -0.00094082923
Prg max-min : 4.3119119
 
sngrad(rho) :1.3794645 0.46272495 0.00013479053
 
Iteration Number = 14

DILUPBiCG:  Solving for Ux, Initial residual = 0.084288525, Final residual = 4.1247713e-06, No Iterations 2
DILUPBiCG:  Solving for Uy, Initial residual = 0.00065539524, Final residual = 1.5529956e-08, No Iterations 2
DILUPBiCG:  Solving for Uz, Initial residual = 0.14888212, Final residual = 2.1766886e-06, No Iterations 2
DILUPBiCG:  Solving for h, Initial residual = 0.021981825, Final residual = 1.1716767e-05, No Iterations 2
GAMG:  Solving for p_rgh, Initial residual = 0.0049248882, Final residual = 2.796268e-06, No Iterations 4
time step continuity errors : sum local = 0.00010808991, global = 2.5987631e-05, cumulative = 0.00017086348
ExecutionTime = 2.04 s  ClockTime = 2 s
Inflow      : -5.3674122e-08 [kg/s]
Outflow     : -3.2000453e-08 [kg/s]
EnergyInflow  : -0.015858674 [W]
EnergyOutflow : -0.0091011067 [W]
EnergyBalance : 0.0067575675 [W]
rho max/avg/min : 1.2016411 1.1362234 0.90461839
T   max/avg/min : 390.10982 312.81824 293.70088
P   max/avg/min : 101324.91 101316.16 101307.41
Prg max/avg/min : 101325 101324.52 101320.65
U   max/avg/min : 0.0093281288 0.0048805148 -0.0013167201
Prg max-min : 4.3458217
 
sngrad(rho) :1.2610822 0.46375139 0.00033792087
 
Iteration Number = 15

DILUPBiCG:  Solving for Ux, Initial residual = 0.079424753, Final residual = 4.6674745e-06, No Iterations 2
DILUPBiCG:  Solving for Uy, Initial residual = 0.00093516372, Final residual = 2.8298761e-08, No Iterations 2
DILUPBiCG:  Solving for Uz, Initial residual = 0.14475698, Final residual = 2.2633859e-06, No Iterations 2
DILUPBiCG:  Solving for h, Initial residual = 0.021300208, Final residual = 1.6198937e-05, No Iterations 2
GAMG:  Solving for p_rgh, Initial residual = 0.0051691364, Final residual = 4.0978218e-06, No Iterations 4
time step continuity errors : sum local = 0.00016655153, global = 7.1524989e-05, cumulative = 0.00024238846
ExecutionTime = 2.07 s  ClockTime = 2 s
Inflow      : -8.8146364e-08 [kg/s]
Outflow     : -2.8494566e-08 [kg/s]
EnergyInflow  : -0.026043919 [W]
EnergyOutflow : -0.0079054998 [W]
EnergyBalance : 0.018138419 [W]
rho max/avg/min : 1.2016383 1.1329815 0.90165315
T   max/avg/min : 391.40593 313.80448 293.7015
P   max/avg/min : 101324.91 101316.16 101307.41
Prg max/avg/min : 101325 101324.5 101320.61
U   max/avg/min : 0.011368532 0.0060850341 -0.00192596
Prg max-min : 4.3887674
 
sngrad(rho) :1.1695006 0.46865232 0.00068025561
 
Iteration Number = 16

DILUPBiCG:  Solving for Ux, Initial residual = 0.083955476, Final residual = 6.0310767e-06, No Iterations 2
DILUPBiCG:  Solving for Uy, Initial residual = 0.0012481353, Final residual = 4.632055e-08, No Iterations 2
DILUPBiCG:  Solving for Uz, Initial residual = 0.13902127, Final residual = 2.9078667e-06, No Iterations 2
DILUPBiCG:  Solving for h, Initial residual = 0.020625833, Final residual = 2.2400697e-06, No Iterations 4
GAMG:  Solving for p_rgh, Initial residual = 0.005548537, Final residual = 3.9346339e-06, No Iterations 4
time step continuity errors : sum local = 0.00016734927, global = 3.7563763e-05, cumulative = 0.00027995223
ExecutionTime = 2.1 s  ClockTime = 2 s
Inflow      : -5.2665042e-08 [kg/s]
Outflow     : -2.1336886e-08 [kg/s]
EnergyInflow  : -0.015560529 [W]
EnergyOutflow : -0.0055606908 [W]
EnergyBalance : 0.0099998384 [W]
rho max/avg/min : 1.2016311 1.129774 0.89831933
T   max/avg/min : 392.86986 314.78885 293.70286
P   max/avg/min : 101324.91 101316.16 101307.41
Prg max/avg/min : 101325 101324.47 101320.56
U   max/avg/min : 0.013780076 0.0074929718 -0.0025767894
Prg max-min : 4.4369903
 
sngrad(rho) :1.0963082 0.47666684 0.0014192174
 
Iteration Number = 17

DILUPBiCG:  Solving for Ux, Initial residual = 0.082332677, Final residual = 7.5330103e-06, No Iterations 2
DILUPBiCG:  Solving for Uy, Initial residual = 0.0015422258, Final residual = 8.230248e-08, No Iterations 2
DILUPBiCG:  Solving for Uz, Initial residual = 0.13190324, Final residual = 2.8566562e-06, No Iterations 2
DILUPBiCG:  Solving for h, Initial residual = 0.019973289, Final residual = 4.055176e-06, No Iterations 4
GAMG:  Solving for p_rgh, Initial residual = 0.0060289711, Final residual = 5.4709916e-06, No Iterations 4
time step continuity errors : sum local = 0.00024261782, global = 0.00010126021, cumulative = 0.00038121244
ExecutionTime = 2.13 s  ClockTime = 2 s
Inflow      : -8.9684936e-08 [kg/s]
Outflow     : -5.2339783e-09 [kg/s]
EnergyInflow  : -0.026498508 [W]
EnergyOutflow : -0.0004690992 [W]
EnergyBalance : 0.026029409 [W]
rho max/avg/min : 1.2016214 1.1266023 0.89474061
T   max/avg/min : 394.44123 315.77037 293.70529
P   max/avg/min : 101324.91 101316.16 101307.41
Prg max/avg/min : 101325 101324.45 101320.51
U   max/avg/min : 0.016621144 0.0091006381 -0.0035181147
Prg max-min : 4.4884941
 
sngrad(rho) :1.0390855 0.48705541 0.0027472299
 
Iteration Number = 18

DILUPBiCG:  Solving for Ux, Initial residual = 0.086132642, Final residual = 9.851188e-06, No Iterations 2
DILUPBiCG:  Solving for Uy, Initial residual = 0.0018982002, Final residual = 1.4537608e-07, No Iterations 2
DILUPBiCG:  Solving for Uz, Initial residual = 0.12404445, Final residual = 3.3936782e-06, No Iterations 2
DILUPBiCG:  Solving for h, Initial residual = 0.019323617, Final residual = 9.4494706e-06, No Iterations 4
GAMG:  Solving for p_rgh, Initial residual = 0.0065575491, Final residual = 5.4266904e-06, No Iterations 4
time step continuity errors : sum local = 0.00024947753, global = 4.8408161e-05, cumulative = 0.0004296206
ExecutionTime = 2.16 s  ClockTime = 2 s
Inflow      : -1.2981336e-08 [kg/s]
Outflow     : 2.7391042e-08 [kg/s]
EnergyInflow  : -0.003835494 [W]
EnergyOutflow : 0.0096530448 [W]
EnergyBalance : 0.013488539 [W]
rho max/avg/min : 1.2016061 1.1234665 0.89103063
T   max/avg/min : 396.08357 316.74851 293.70947
P   max/avg/min : 101324.91 101316.16 101307.41
Prg max/avg/min : 101325 101324.43 101320.46
U   max/avg/min : 0.019925753 0.010938466 -0.004465416
Prg max-min : 4.5417357
 
sngrad(rho) :0.9945281 0.49989176 0.0050239018
 
Iteration Number = 19

DILUPBiCG:  Solving for Ux, Initial residual = 0.087113854, Final residual = 1.2181909e-05, No Iterations 2
DILUPBiCG:  Solving for Uy, Initial residual = 0.0023786412, Final residual = 2.3364328e-07, No Iterations 2
DILUPBiCG:  Solving for Uz, Initial residual = 0.11498732, Final residual = 3.4253099e-06, No Iterations 2
DILUPBiCG:  Solving for h, Initial residual = 0.018685288, Final residual = 1.4221268e-05, No Iterations 4
GAMG:  Solving for p_rgh, Initial residual = 0.0075685571, Final residual = 7.0997276e-06, No Iterations 4
time step continuity errors : sum local = 0.00033577733, global = 0.00012980386, cumulative = 0.00055942446
ExecutionTime = 2.19 s  ClockTime = 2 s
Inflow      : -2.1176946e-08 [kg/s]
Outflow     : 8.7079398e-08 [kg/s]
EnergyInflow  : -0.0062569869 [W]
EnergyOutflow : 0.027983312 [W]
EnergyBalance : 0.034240298 [W]
rho max/avg/min : 1.2016072 1.120363 0.88724244
T   max/avg/min : 397.7747 317.72383 293.70931
P   max/avg/min : 101324.91 101316.16 101307.41
Prg max/avg/min : 101325 101324.4 101320.41
U   max/avg/min : 0.023753949 0.012980667 -0.005721315
Prg max-min : 4.5958386
 
sngrad(rho) :0.9569565 0.51170669 0.0092226962
 
Iteration Number = 20

DILUPBiCG:  Solving for Ux, Initial residual = 0.088940716, Final residual = 1.3692418e-05, No Iterations 2
DILUPBiCG:  Solving for Uy, Initial residual = 0.0031989891, Final residual = 3.769635e-07, No Iterations 2
DILUPBiCG:  Solving for Uz, Initial residual = 0.10645568, Final residual = 3.8352412e-06, No Iterations 2
DILUPBiCG:  Solving for h, Initial residual = 0.018050749, Final residual = 8.5660872e-06, No Iterations 4
GAMG:  Solving for G, Initial residual = 0.050292303, Final residual = 0.026516559, No Iterations 1000
GAMG:  Solving for p_rgh, Initial residual = 0.0087172197, Final residual = 6.6020693e-06, No Iterations 4
time step continuity errors : sum local = 0.0003195111, global = 5.5321224e-05, cumulative = 0.00061474569
ExecutionTime = 3.01 s  ClockTime = 3 s
Inflow      : 1.3698979e-07 [kg/s]
Outflow     : 1.8312765e-07 [kg/s]
EnergyInflow  : 0.040475303 [W]
EnergyOutflow : 0.057345538 [W]
EnergyBalance : 0.016870235 [W]
rho max/avg/min : 1.2016136 1.1172992 0.88341751
T   max/avg/min : 399.49694 318.69408 293.70773
P   max/avg/min : 101324.91 101316.16 101307.41
Prg max/avg/min : 101325 101324.38 101320.35
U   max/avg/min : 0.028143076 0.015270233 -0.0072025451
Prg max-min : 4.6501566
 
sngrad(rho) :0.92909377 0.51955403 0.016176807
 
Iteration Number = 21

DILUPBiCG:  Solving for Ux, Initial residual = 0.085833692, Final residual = 1.4809999e-05, No Iterations 2
DILUPBiCG:  Solving for Uy, Initial residual = 0.003839941, Final residual = 6.239801e-07, No Iterations 2
DILUPBiCG:  Solving for Uz, Initial residual = 0.097555308, Final residual = 4.1381708e-06, No Iterations 2
DILUPBiCG:  Solving for h, Initial residual = 0.017804575, Final residual = 1.4844599e-05, No Iterations 4
GAMG:  Solving for p_rgh, Initial residual = 0.0093781211, Final residual = 7.3712685e-06, No Iterations 4
time step continuity errors : sum local = 0.00037108978, global = 0.00014526943, cumulative = 0.00076001511
ExecutionTime = 3.04 s  ClockTime = 3 s
Inflow      : 2.0172222e-07 [kg/s]
Outflow     : 3.2287683e-07 [kg/s]
EnergyInflow  : 0.05960129 [W]
EnergyOutflow : 0.099962878 [W]
EnergyBalance : 0.040361588 [W]
rho max/avg/min : 1.201622 1.1144053 0.88180959
T   max/avg/min : 400.22539 319.60321 293.70567
P   max/avg/min : 101324.91 101316.16 101307.42
Prg max/avg/min : 101325.01 101324.36 101320.33
U   max/avg/min : 0.033097401 0.017743205 -0.0087150735
Prg max-min : 4.6724417
 
sngrad(rho) :0.90420637 0.50943396 0.024826267
 
Iteration Number = 22

DILUPBiCG:  Solving for Ux, Initial residual = 0.086317184, Final residual = 1.5857583e-05, No Iterations 2
DILUPBiCG:  Solving for Uy, Initial residual = 0.0038972976, Final residual = 1.1145615e-06, No Iterations 2
DILUPBiCG:  Solving for Uz, Initial residual = 0.089498305, Final residual = 4.3248284e-06, No Iterations 2
DILUPBiCG:  Solving for h, Initial residual = 0.015524385, Final residual = 1.3691962e-06, No Iterations 5
GAMG:  Solving for p_rgh, Initial residual = 0.01051719, Final residual = 4.2178696e-06, No Iterations 4
time step continuity errors : sum local = 0.00022007946, global = 3.5621515e-05, cumulative = 0.00079563663
ExecutionTime = 3.07 s  ClockTime = 3 s
Inflow      : 4.9230036e-07 [kg/s]
Outflow     : 5.2200869e-07 [kg/s]
EnergyInflow  : 0.14545615 [W]
EnergyOutflow : 0.16054575 [W]
EnergyBalance : 0.015089601 [W]
rho max/avg/min : 1.2016281 1.1115568 0.87917464
T   max/avg/min : 401.4249 320.50653 293.7042
P   max/avg/min : 101324.91 101316.16 101307.42
Prg max/avg/min : 101325 101324.34 101320.3
U   max/avg/min : 0.038647935 0.02046398 -0.010226311
Prg max-min : 4.7092007
 
sngrad(rho) :0.88203378 0.50795398 0.036531247
 
Iteration Number = 23

DILUPBiCG:  Solving for Ux, Initial residual = 0.078060492, Final residual = 1.5781169e-05, No Iterations 2
DILUPBiCG:  Solving for Uy, Initial residual = 0.004822114, Final residual = 1.1036325e-06, No Iterations 2
DILUPBiCG:  Solving for Uz, Initial residual = 0.081686115, Final residual = 4.7707602e-06, No Iterations 2
DILUPBiCG:  Solving for h, Initial residual = 0.015014828, Final residual = 1.4412167e-06, No Iterations 5
GAMG:  Solving for p_rgh, Initial residual = 0.010320856, Final residual = 6.1644465e-06, No Iterations 4
time step continuity errors : sum local = 0.00033929971, global = 0.00014755763, cumulative = 0.00094319426
ExecutionTime = 3.11 s  ClockTime = 3 s
Inflow      : 6.6615536e-07 [kg/s]
Outflow     : 7.8921833e-07 [kg/s]
EnergyInflow  : 0.19682373 [W]
EnergyOutflow : 0.24168725 [W]
EnergyBalance : 0.044863525 [W]
rho max/avg/min : 1.2016321 1.1087601 0.87625891
T   max/avg/min : 402.76063 321.40091 293.7032
P   max/avg/min : 101324.91 101316.17 101307.42
Prg max/avg/min : 101325.01 101324.32 101320.26
U   max/avg/min : 0.044783985 0.023333536 -0.011561602
Prg max-min : 4.750134
 
sngrad(rho) :0.86080651 0.50807723 0.047305327
 
Iteration Number = 24

DILUPBiCG:  Solving for Ux, Initial residual = 0.077719976, Final residual = 1.714723e-05, No Iterations 2
DILUPBiCG:  Solving for Uy, Initial residual = 0.0058759573, Final residual = 3.2359912e-06, No Iterations 2
DILUPBiCG:  Solving for Uz, Initial residual = 0.074941351, Final residual = 4.6790814e-06, No Iterations 2
DILUPBiCG:  Solving for h, Initial residual = 0.014507218, Final residual = 1.7019927e-06, No Iterations 5
GAMG:  Solving for p_rgh, Initial residual = 0.010600949, Final residual = 4.3458267e-06, No Iterations 4
time step continuity errors : sum local = 0.00024835468, global = 6.5295302e-06, cumulative = 0.00094972379
ExecutionTime = 3.14 s  ClockTime = 3 s
Inflow      : 1.0967229e-06 [kg/s]
Outflow     : 1.1021685e-06 [kg/s]
EnergyInflow  : 0.32404016 [W]
EnergyOutflow : 0.33686422 [W]
EnergyBalance : 0.012824064 [W]
rho max/avg/min : 1.2016337 1.1060168 0.87322657
T   max/avg/min : 404.15924 322.28544 293.70282
P   max/avg/min : 101324.91 101316.16 101307.42
Prg max/avg/min : 101325.01 101324.3 101320.21
U   max/avg/min : 0.051433573 0.026423764 -0.013810823
Prg max-min : 4.7924037
 
sngrad(rho) :0.83994904 0.49732293 0.062703961
 
Iteration Number = 25

DILUPBiCG:  Solving for Ux, Initial residual = 0.065844179, Final residual = 1.6013289e-05, No Iterations 2
DILUPBiCG:  Solving for Uy, Initial residual = 0.0065787593, Final residual = 3.9352063e-08, No Iterations 3
DILUPBiCG:  Solving for Uz, Initial residual = 0.068796284, Final residual = 4.8471168e-06, No Iterations 2
DILUPBiCG:  Solving for h, Initial residual = 0.014012054, Final residual = 3.2998627e-06, No Iterations 5
GAMG:  Solving for p_rgh, Initial residual = 0.0095911476, Final residual = 5.2292917e-06, No Iterations 4
time step continuity errors : sum local = 0.00030905335, global = 0.00013734437, cumulative = 0.0010870682
ExecutionTime = 3.17 s  ClockTime = 3 s
Inflow      : 1.369992e-06 [kg/s]
Outflow     : 1.4845372e-06 [kg/s]
EnergyInflow  : 0.40478086 [W]
EnergyOutflow : 0.45308224 [W]
EnergyBalance : 0.048301379 [W]
rho max/avg/min : 1.2016347 1.1033311 0.87014302
T   max/avg/min : 405.59147 323.15871 293.70258
P   max/avg/min : 101324.91 101316.17 101307.43
Prg max/avg/min : 101325.01 101324.28 101320.17
U   max/avg/min : 0.058685366 0.029631713 -0.015944933
Prg max-min : 4.8359811
 
sngrad(rho) :0.81780837 0.49274755 0.074526767
 
Iteration Number = 26

DILUPBiCG:  Solving for Ux, Initial residual = 0.063883467, Final residual = 1.6137092e-05, No Iterations 2
DILUPBiCG:  Solving for Uy, Initial residual = 0.0068773198, Final residual = 4.7067871e-06, No Iterations 2
DILUPBiCG:  Solving for Uz, Initial residual = 0.063168359, Final residual = 4.6220326e-06, No Iterations 2
DILUPBiCG:  Solving for h, Initial residual = 0.013524036, Final residual = 7.021242e-06, No Iterations 5
GAMG:  Solving for p_rgh, Initial residual = 0.0087688737, Final residual = 4.5383408e-06, No Iterations 4
time step continuity errors : sum local = 0.00027618516, global = -2.6855623e-05, cumulative = 0.0010602125
ExecutionTime = 3.21 s  ClockTime = 3 s
Inflow      : 1.9685184e-06 [kg/s]
Outflow     : 1.9461208e-06 [kg/s]
EnergyInflow  : 0.58162277 [W]
EnergyOutflow : 0.59328471 [W]
EnergyBalance : 0.011661933 [W]
rho max/avg/min : 1.2016352 1.1007048 0.86704498
T   max/avg/min : 407.04069 324.01999 293.70244
P   max/avg/min : 101324.91 101316.17 101307.43
Prg max/avg/min : 101325.01 101324.26 101320.13
U   max/avg/min : 0.066390277 0.033026737 -0.018161693
Prg max-min : 4.8801237
 
sngrad(rho) :0.85868566 0.48822165 0.084490564
 
Iteration Number = 27

DILUPBiCG:  Solving for Ux, Initial residual = 0.053715196, Final residual = 1.4770392e-05, No Iterations 2
DILUPBiCG:  Solving for Uy, Initial residual = 0.0070094701, Final residual = 3.7809615e-06, No Iterations 2
DILUPBiCG:  Solving for Uz, Initial residual = 0.058560491, Final residual = 4.3947344e-06, No Iterations 2
DILUPBiCG:  Solving for h, Initial residual = 0.013063666, Final residual = 9.0537819e-07, No Iterations 6
GAMG:  Solving for p_rgh, Initial residual = 0.0093970391, Final residual = 5.024422e-06, No Iterations 4
time step continuity errors : sum local = 0.00029556321, global = 0.00015317116, cumulative = 0.0012133837
ExecutionTime = 3.24 s  ClockTime = 3 s
Inflow      : 2.3411091e-06 [kg/s]
Outflow     : 2.4688538e-06 [kg/s]
EnergyInflow  : 0.69170925 [W]
EnergyOutflow : 0.75227328 [W]
EnergyBalance : 0.060564036 [W]
rho max/avg/min : 1.2016367 1.0981386 0.86395818
T   max/avg/min : 408.49499 324.8689 293.70208
P   max/avg/min : 101324.91 101316.17 101307.43
Prg max/avg/min : 101325.01 101324.24 101320.09
U   max/avg/min : 0.074501517 0.036521554 -0.02023799
Prg max-min : 4.9231556
 
sngrad(rho) :0.82720723 0.47003155 0.092280176
 
Iteration Number = 28

DILUPBiCG:  Solving for Ux, Initial residual = 0.052950693, Final residual = 1.4584744e-05, No Iterations 2
DILUPBiCG:  Solving for Uy, Initial residual = 0.0079862112, Final residual = 1.1068953e-07, No Iterations 3
DILUPBiCG:  Solving for Uz, Initial residual = 0.053831305, Final residual = 4.1650141e-06, No Iterations 2
DILUPBiCG:  Solving for h, Initial residual = 0.012608288, Final residual = 4.0609634e-06, No Iterations 5
GAMG:  Solving for p_rgh, Initial residual = 0.0086082858, Final residual = 3.1732558e-06, No Iterations 4
time step continuity errors : sum local = 0.00018526671, global = -4.3844995e-05, cumulative = 0.0011695387
ExecutionTime = 3.27 s  ClockTime = 3 s
Inflow      : 3.0953361e-06 [kg/s]
Outflow     : 3.0587694e-06 [kg/s]
EnergyInflow  : 0.91455481 [W]
EnergyOutflow : 0.93179352 [W]
EnergyBalance : 0.017238712 [W]
rho max/avg/min : 1.2016388 1.0956356 0.8609012
T   max/avg/min : 409.94552 325.70436 293.70158
P   max/avg/min : 101324.91 101316.17 101307.43
Prg max/avg/min : 101325.01 101324.22 101320.04
U   max/avg/min : 0.083147358 0.040153585 -0.022229159
Prg max-min : 4.9674558
 
sngrad(rho) :0.92583174 0.46168346 0.072191328
 
Iteration Number = 29

DILUPBiCG:  Solving for Ux, Initial residual = 0.044708003, Final residual = 1.3099274e-05, No Iterations 2
DILUPBiCG:  Solving for Uy, Initial residual = 0.009492628, Final residual = 6.0783411e-06, No Iterations 2
DILUPBiCG:  Solving for Uz, Initial residual = 0.050559587, Final residual = 3.8107014e-06, No Iterations 2
DILUPBiCG:  Solving for h, Initial residual = 0.012172142, Final residual = 3.0851059e-06, No Iterations 5
GAMG:  Solving for p_rgh, Initial residual = 0.0084542609, Final residual = 5.3494265e-06, No Iterations 4
time step continuity errors : sum local = 0.00029858807, global = 0.00018595622, cumulative = 0.0013554949
ExecutionTime = 3.3 s  ClockTime = 3 s
Inflow      : 3.5850743e-06 [kg/s]
Outflow     : 3.7401617e-06 [kg/s]
EnergyInflow  : 1.0592539 [W]
EnergyOutflow : 1.1390711 [W]
EnergyBalance : 0.079817158 [W]
rho max/avg/min : 1.2016492 1.0931989 0.85788374
T   max/avg/min : 411.38526 326.52528 293.69904
P   max/avg/min : 101324.91 101316.17 101307.44
Prg max/avg/min : 101325.01 101324.2 101320
U   max/avg/min : 0.092143294 0.043866555 -0.023982645
Prg max-min : 5.0119188
 
sngrad(rho) :1.0044676 0.45434941 0.068803908
 
Iteration Number = 30

DILUPBiCG:  Solving for Ux, Initial residual = 0.043701466, Final residual = 1.238806e-05, No Iterations 2
DILUPBiCG:  Solving for Uy, Initial residual = 0.0097144895, Final residual = 7.1041211e-06, No Iterations 2
DILUPBiCG:  Solving for Uz, Initial residual = 0.046432871, Final residual = 3.5990401e-06, No Iterations 2
DILUPBiCG:  Solving for h, Initial residual = 0.01175364, Final residual = 3.1825691e-06, No Iterations 5
GAMG:  Solving for G, Initial residual = 0.089489141, Final residual = 0.024960385, No Iterations 1000
GAMG:  Solving for p_rgh, Initial residual = 0.0083135698, Final residual = 3.5800159e-06, No Iterations 4
time step continuity errors : sum local = 0.00019682743, global = -1.1299213e-05, cumulative = 0.0013441957
ExecutionTime = 4.12 s  ClockTime = 4 s
Inflow      : 4.527154e-06 [kg/s]
Outflow     : 4.5177305e-06 [kg/s]
EnergyInflow  : 1.3376029 [W]
EnergyOutflow : 1.3755629 [W]
EnergyBalance : 0.037960044 [W]
rho max/avg/min : 1.2016489 1.0908294 0.85476546
T   max/avg/min : 412.81775 327.33123 293.69912
P   max/avg/min : 101324.91 101316.17 101307.44
Prg max/avg/min : 101325.01 101324.18 101319.96
U   max/avg/min : 0.10149344 0.047696042 -0.025475834
Prg max-min : 5.05596
 
sngrad(rho) :1.07907 0.44713244 0.064462737
 
Iteration Number = 31

DILUPBiCG:  Solving for Ux, Initial residual = 0.0390345, Final residual = 1.1881876e-05, No Iterations 2
DILUPBiCG:  Solving for Uy, Initial residual = 0.0099708054, Final residual = 4.1509278e-06, No Iterations 2
DILUPBiCG:  Solving for Uz, Initial residual = 0.044417134, Final residual = 3.3718281e-06, No Iterations 2
DILUPBiCG:  Solving for h, Initial residual = 0.013043188, Final residual = 4.7241939e-06, No Iterations 5
GAMG:  Solving for p_rgh, Initial residual = 0.010899458, Final residual = 4.8150787e-06, No Iterations 4
time step continuity errors : sum local = 0.00025184128, global = 0.00017890419, cumulative = 0.0015230999
ExecutionTime = 4.15 s  ClockTime = 4 s
Inflow      : 5.2414294e-06 [kg/s]
Outflow     : 5.3906353e-06 [kg/s]
EnergyInflow  : 1.5486442 [W]
EnergyOutflow : 1.6411775 [W]
EnergyBalance : 0.092533297 [W]
rho max/avg/min : 1.2016504 1.0887946 0.85628684
T   max/avg/min : 412.08429 327.9988 293.69819
P   max/avg/min : 101324.91 101316.17 101307.44
Prg max/avg/min : 101325.01 101324.17 101319.98
U   max/avg/min : 0.11113395 0.051578564 -0.026712823
Prg max-min : 5.0295621
 
sngrad(rho) :0.94230664 0.38624837 -0.20292064
 
Iteration Number = 32

DILUPBiCG:  Solving for Ux, Initial residual = 0.035525601, Final residual = 1.0554185e-05, No Iterations 2
DILUPBiCG:  Solving for Uy, Initial residual = 0.010487079, Final residual = 6.8247933e-06, No Iterations 2
DILUPBiCG:  Solving for Uz, Initial residual = 0.040665081, Final residual = 3.1531579e-06, No Iterations 2
DILUPBiCG:  Solving for h, Initial residual = 0.0091467505, Final residual = 3.8606459e-06, No Iterations 6
GAMG:  Solving for p_rgh, Initial residual = 0.011934702, Final residual = 1.1839789e-05, No Iterations 3
time step continuity errors : sum local = 0.00060200996, global = 0.00021533741, cumulative = 0.0017384373
ExecutionTime = 4.18 s  ClockTime = 4 s
Inflow      : 6.1930303e-06 [kg/s]
Outflow     : 6.3726215e-06 [kg/s]
EnergyInflow  : 1.8298064 [W]
EnergyOutflow : 1.9399343 [W]
EnergyBalance : 0.1101279 [W]
rho max/avg/min : 1.2016504 1.0868277 0.8557183
T   max/avg/min : 412.3581 328.65355 293.69739
P   max/avg/min : 101324.91 101316.17 101307.44
Prg max/avg/min : 101325.01 101324.15 101319.98
U   max/avg/min : 0.1210417 0.055506549 -0.027640678
Prg max-min : 5.0361384
 
sngrad(rho) :1.0312608 0.37686487 0.033488941
 
Iteration Number = 33

DILUPBiCG:  Solving for Ux, Initial residual = 0.036161919, Final residual = 1.1101183e-05, No Iterations 2
DILUPBiCG:  Solving for Uy, Initial residual = 0.01040613, Final residual = 1.109044e-07, No Iterations 3
DILUPBiCG:  Solving for Uz, Initial residual = 0.038965643, Final residual = 3.0712176e-06, No Iterations 2
DILUPBiCG:  Solving for h, Initial residual = 0.0085163534, Final residual = 2.9192611e-06, No Iterations 6
GAMG:  Solving for p_rgh, Initial residual = 0.012697896, Final residual = 4.3984836e-06, No Iterations 4
time step continuity errors : sum local = 0.00021472626, global = -4.1969177e-05, cumulative = 0.0016964681
ExecutionTime = 4.2 s  ClockTime = 4 s
Inflow      : 7.4959097e-06 [kg/s]
Outflow     : 7.4609074e-06 [kg/s]
EnergyInflow  : 2.214758 [W]
EnergyOutflow : 2.2709725 [W]
EnergyBalance : 0.056214532 [W]
rho max/avg/min : 1.201651 1.0849368 0.85455444
T   max/avg/min : 412.91972 329.2902 293.69655
P   max/avg/min : 101324.91 101316.17 101307.44
Prg max/avg/min : 101325.01 101324.14 101319.96
U   max/avg/min : 0.1312149 0.059568538 -0.028258947
Prg max-min : 5.0520113
 
sngrad(rho) :1.0890938 0.36788788 0.03000056
 
Iteration Number = 34

DILUPBiCG:  Solving for Ux, Initial residual = 0.036403942, Final residual = 2.0515565e-05, No Iterations 2
DILUPBiCG:  Solving for Uy, Initial residual = 0.009839232, Final residual = 7.5809342e-06, No Iterations 2
DILUPBiCG:  Solving for Uz, Initial residual = 0.038140198, Final residual = 3.1350991e-06, No Iterations 2
DILUPBiCG:  Solving for h, Initial residual = 0.0082458036, Final residual = 2.7495086e-06, No Iterations 6
GAMG:  Solving for p_rgh, Initial residual = 0.015208118, Final residual = 4.1116934e-06, No Iterations 4
time step continuity errors : sum local = 0.0001891843, global = 9.0102275e-05, cumulative = 0.0017865704
ExecutionTime = 4.24 s  ClockTime = 4 s
Inflow      : 8.6499665e-06 [kg/s]
Outflow     : 8.7251117e-06 [kg/s]
EnergyInflow  : 2.5557381 [W]
EnergyOutflow : 2.6550282 [W]
EnergyBalance : 0.099290092 [W]
rho max/avg/min : 1.2016507 1.0831299 0.85310812
T   max/avg/min : 413.61976 329.90609 293.69571
P   max/avg/min : 101324.91 101316.17 101307.45
Prg max/avg/min : 101325.01 101324.12 101319.94
U   max/avg/min : 0.14158262 0.063661528 -0.028676025
Prg max-min : 5.0713514
 
sngrad(rho) :1.1363234 0.35822406 0.023589561
 
Iteration Number = 35

DILUPBiCG:  Solving for Ux, Initial residual = 0.030395422, Final residual = 1.4814332e-05, No Iterations 2
DILUPBiCG:  Solving for Uy, Initial residual = 0.011496512, Final residual = 6.3812579e-06, No Iterations 2
DILUPBiCG:  Solving for Uz, Initial residual = 0.03577243, Final residual = 3.0244229e-06, No Iterations 2
DILUPBiCG:  Solving for h, Initial residual = 0.0079925773, Final residual = 3.0609228e-06, No Iterations 6
GAMG:  Solving for p_rgh, Initial residual = 0.017369811, Final residual = 4.3848081e-06, No Iterations 4
time step continuity errors : sum local = 0.00019278139, global = -1.6157935e-05, cumulative = 0.0017704125
ExecutionTime = 4.28 s  ClockTime = 4 s
Inflow      : 1.0019648e-05 [kg/s]
Outflow     : 1.0006173e-05 [kg/s]
EnergyInflow  : 2.9604274 [W]
EnergyOutflow : 3.044884 [W]
EnergyBalance : 0.084456674 [W]
rho max/avg/min : 1.2016509 1.0814033 0.85149319
T   max/avg/min : 414.40425 330.50182 293.69503
P   max/avg/min : 101324.91 101316.17 101307.45
Prg max/avg/min : 101325.01 101324.11 101319.92
U   max/avg/min : 0.15210952 0.067764405 -0.028858574
Prg max-min : 5.0925288
 
sngrad(rho) :1.1825705 0.34979278 0.0064976032
 
Iteration Number = 36

DILUPBiCG:  Solving for Ux, Initial residual = 0.030494276, Final residual = 1.2414846e-05, No Iterations 2
DILUPBiCG:  Solving for Uy, Initial residual = 0.012712749, Final residual = 1.0413964e-05, No Iterations 2
DILUPBiCG:  Solving for Uz, Initial residual = 0.034455796, Final residual = 3.169073e-06, No Iterations 2
DILUPBiCG:  Solving for h, Initial residual = 0.0077432066, Final residual = 4.8104789e-06, No Iterations 6
GAMG:  Solving for p_rgh, Initial residual = 0.021559166, Final residual = 1.8405913e-05, No Iterations 3
time step continuity errors : sum local = 0.00077548245, global = 0.00041039092, cumulative = 0.0021808034
ExecutionTime = 4.3 s  ClockTime = 4 s
Inflow      : 1.1171171e-05 [kg/s]
Outflow     : 1.1513437e-05 [kg/s]
EnergyInflow  : 3.3006587 [W]
EnergyOutflow : 3.5029063 [W]
EnergyBalance : 0.20224758 [W]
rho max/avg/min : 1.2016496 1.0797552 0.84976628
T   max/avg/min : 415.24641 331.07762 293.69433
P   max/avg/min : 101324.91 101316.17 101307.45
Prg max/avg/min : 101325.01 101324.09 101319.9
U   max/avg/min : 0.16275752 0.071864674 -0.028937492
Prg max-min : 5.1116367
 
sngrad(rho) :0.82838135 0.32245426 0.009530721
 
Iteration Number = 37

DILUPBiCG:  Solving for Ux, Initial residual = 0.028704911, Final residual = 1.1665551e-05, No Iterations 2
DILUPBiCG:  Solving for Uy, Initial residual = 0.014352002, Final residual = 1.9898347e-07, No Iterations 3
DILUPBiCG:  Solving for Uz, Initial residual = 0.032876838, Final residual = 3.0836683e-06, No Iterations 2
DILUPBiCG:  Solving for h, Initial residual = 0.0075053244, Final residual = 3.7659899e-06, No Iterations 6
GAMG:  Solving for p_rgh, Initial residual = 0.023927197, Final residual = 2.0122055e-05, No Iterations 3
time step continuity errors : sum local = 0.00082583535, global = 0.00016901422, cumulative = 0.0023498176
ExecutionTime = 4.34 s  ClockTime = 4 s
Inflow      : 1.2987016e-05 [kg/s]
Outflow     : 1.3127974e-05 [kg/s]
EnergyInflow  : 3.8371723 [W]
EnergyOutflow : 3.9935616 [W]
EnergyBalance : 0.15638932 [W]
rho max/avg/min : 1.2016467 1.078185 0.8479618
T   max/avg/min : 416.13007 331.63341 293.69402
P   max/avg/min : 101324.91 101316.17 101307.45
Prg max/avg/min : 101325 101324.08 101319.87
U   max/avg/min : 0.17355222 0.076089934 -0.02849367
Prg max-min : 5.1358427
 
sngrad(rho) :0.89384826 0.31255456 -0.018745764
 
Iteration Number = 38

DILUPBiCG:  Solving for Ux, Initial residual = 0.031116299, Final residual = 2.3746718e-07, No Iterations 3
DILUPBiCG:  Solving for Uy, Initial residual = 0.015388767, Final residual = 1.0225481e-05, No Iterations 2
DILUPBiCG:  Solving for Uz, Initial residual = 0.033542618, Final residual = 3.8262829e-06, No Iterations 2
DILUPBiCG:  Solving for h, Initial residual = 0.0072319212, Final residual = 3.9192291e-06, No Iterations 6
GAMG:  Solving for p_rgh, Initial residual = 0.023321829, Final residual = 4.7897434e-06, No Iterations 4
time step continuity errors : sum local = 0.00018851635, global = 0.00014715194, cumulative = 0.0024969695
ExecutionTime = 4.36 s  ClockTime = 4 s
Inflow      : 1.4745746e-05 [kg/s]
Outflow     : 1.486847e-05 [kg/s]
EnergyInflow  : 4.3568104 [W]
EnergyOutflow : 4.5223569 [W]
EnergyBalance : 0.16554651 [W]
rho max/avg/min : 1.2016456 1.0766978 0.84610163
T   max/avg/min : 417.04494 332.16769 293.6936
P   max/avg/min : 101324.91 101316.17 101307.45
Prg max/avg/min : 101325.01 101324.07 101319.84
U   max/avg/min : 0.18444445 0.080325981 -0.027730439
Prg max-min : 5.1619883
 
sngrad(rho) :0.91935718 0.30246522 -0.02244184
 
Iteration Number = 39

DILUPBiCG:  Solving for Ux, Initial residual = 0.025366687, Final residual = 1.4065536e-05, No Iterations 2
DILUPBiCG:  Solving for Uy, Initial residual = 0.015895546, Final residual = 8.8604878e-06, No Iterations 2
DILUPBiCG:  Solving for Uz, Initial residual = 0.031362602, Final residual = 3.5963915e-06, No Iterations 2
DILUPBiCG:  Solving for h, Initial residual = 0.0069705448, Final residual = 3.6754101e-06, No Iterations 6
GAMG:  Solving for p_rgh, Initial residual = 0.023862803, Final residual = 1.3251607e-05, No Iterations 4
time step continuity errors : sum local = 0.00050600729, global = 2.5616519e-05, cumulative = 0.002522586
ExecutionTime = 4.4 s  ClockTime = 4 s
Inflow      : 1.6796543e-05 [kg/s]
Outflow     : 1.6817907e-05 [kg/s]
EnergyInflow  : 4.9627435 [W]
EnergyOutflow : 5.1138146 [W]
EnergyBalance : 0.15107114 [W]
rho max/avg/min : 1.2016456 1.0752936 0.84420151
T   max/avg/min : 417.98363 332.68027 293.69348
P   max/avg/min : 101324.91 101316.17 101307.45
Prg max/avg/min : 101325 101324.05 101319.81
U   max/avg/min : 0.19540574 0.084598223 -0.026691911
Prg max-min : 5.188223
 
sngrad(rho) :0.93477489 0.29239815 -0.030136143
 
Iteration Number = 40

DILUPBiCG:  Solving for Ux, Initial residual = 0.025718382, Final residual = 2.3495834e-07, No Iterations 3
DILUPBiCG:  Solving for Uy, Initial residual = 0.016379122, Final residual = 8.0640157e-06, No Iterations 2
DILUPBiCG:  Solving for Uz, Initial residual = 0.031246212, Final residual = 4.1989557e-06, No Iterations 2
DILUPBiCG:  Solving for h, Initial residual = 0.0067182467, Final residual = 5.5102192e-06, No Iterations 5
GAMG:  Solving for G, Initial residual = 0.063227349, Final residual = 0.022390893, No Iterations 1000
GAMG:  Solving for p_rgh, Initial residual = 0.027096295, Final residual = 2.09912e-05, No Iterations 3
time step continuity errors : sum local = 0.00078180322, global = 1.9337238e-05, cumulative = 0.0025419233
ExecutionTime = 5.18 s  ClockTime = 5 s
Inflow      : 1.8806447e-05 [kg/s]
Outflow     : 1.8822574e-05 [kg/s]
EnergyInflow  : 5.5565942 [W]
EnergyOutflow : 5.7221676 [W]
EnergyBalance : 0.16557332 [W]
rho max/avg/min : 1.2016456 1.0739703 0.84227265
T   max/avg/min : 418.94083 333.17156 293.69342
P   max/avg/min : 101324.91 101316.17 101307.45
Prg max/avg/min : 101325 101324.04 101319.79
U   max/avg/min : 0.20640838 0.088836104 -0.025660224
Prg max-min : 5.2129413
 
sngrad(rho) :0.96457585 0.28316099 -0.043632262
 
Iteration Number = 41

DILUPBiCG:  Solving for Ux, Initial residual = 0.025332146, Final residual = 1.3655798e-05, No Iterations 2
DILUPBiCG:  Solving for Uy, Initial residual = 0.016384116, Final residual = 1.0360885e-05, No Iterations 2
DILUPBiCG:  Solving for Uz, Initial residual = 0.028910363, Final residual = 3.8374035e-06, No Iterations 2
DILUPBiCG:  Solving for h, Initial residual = 0.0069924692, Final residual = 4.360827e-06, No Iterations 5
GAMG:  Solving for p_rgh, Initial residual = 0.033163246, Final residual = 2.3593153e-05, No Iterations 3
time step continuity errors : sum local = 0.00085718515, global = 0.0003635729, cumulative = 0.0029054962
ExecutionTime = 5.22 s  ClockTime = 5 s
Inflow      : 2.0586266e-05 [kg/s]
Outflow     : 2.0889486e-05 [kg/s]
EnergyInflow  : 6.0824635 [W]
EnergyOutflow : 6.3496668 [W]
EnergyBalance : 0.26720331 [W]
rho max/avg/min : 1.2016456 1.072834 0.84247551
T   max/avg/min : 418.83996 333.58945 293.6932
P   max/avg/min : 101324.91 101316.16 101307.44
Prg max/avg/min : 101325 101324.03 101319.79
U   max/avg/min : 0.21750216 0.093112792 -0.024050298
Prg max-min : 5.2141042
 
sngrad(rho) :0.46341295 0.24245096 -0.041106428
 
Iteration Number = 42

DILUPBiCG:  Solving for Ux, Initial residual = 0.030394247, Final residual = 2.276129e-05, No Iterations 2
DILUPBiCG:  Solving for Uy, Initial residual = 0.01613108, Final residual = 1.3997882e-05, No Iterations 2
DILUPBiCG:  Solving for Uz, Initial residual = 0.028467583, Final residual = 4.1872567e-06, No Iterations 2
DILUPBiCG:  Solving for h, Initial residual = 0.0054719146, Final residual = 4.3520984e-06, No Iterations 7
GAMG:  Solving for p_rgh, Initial residual = 0.038991378, Final residual = 2.4080978e-05, No Iterations 3
time step continuity errors : sum local = 0.00083672096, global = 8.9387925e-05, cumulative = 0.0029948841
ExecutionTime = 5.26 s  ClockTime = 5 s
Inflow      : 2.2959162e-05 [kg/s]
Outflow     : 2.3033712e-05 [kg/s]
EnergyInflow  : 6.7835645 [W]
EnergyOutflow : 7.0004006 [W]
EnergyBalance : 0.2168361 [W]
rho max/avg/min : 1.2016456 1.0717782 0.84168926
T   max/avg/min : 419.23119 333.98695 293.69326
P   max/avg/min : 101324.91 101316.16 101307.44
Prg max/avg/min : 101325 101324.01 101319.77
U   max/avg/min : 0.22865326 0.09742973 -0.022019511
Prg max-min : 5.2292833
 
sngrad(rho) :0.44682821 0.22817125 -0.071327335
 
Iteration Number = 43

DILUPBiCG:  Solving for Ux, Initial residual = 0.023574451, Final residual = 3.0354856e-07, No Iterations 3
DILUPBiCG:  Solving for Uy, Initial residual = 0.016784265, Final residual = 1.0052876e-05, No Iterations 2
DILUPBiCG:  Solving for Uz, Initial residual = 0.027432287, Final residual = 4.3653776e-06, No Iterations 2
DILUPBiCG:  Solving for h, Initial residual = 0.0052204261, Final residual = 3.5396323e-06, No Iterations 7
GAMG:  Solving for p_rgh, Initial residual = 0.033306816, Final residual = 1.168908e-05, No Iterations 3
time step continuity errors : sum local = 0.00038027863, global = 7.3432011e-05, cumulative = 0.0030683161
ExecutionTime = 5.28 s  ClockTime = 5 s
Inflow      : 2.5133009e-05 [kg/s]
Outflow     : 2.5194251e-05 [kg/s]
EnergyInflow  : 7.425854 [W]
EnergyOutflow : 7.655623 [W]
EnergyBalance : 0.22976893 [W]
rho max/avg/min : 1.2016457 1.0707993 0.84061243
T   max/avg/min : 419.76821 334.3636 293.69318
P   max/avg/min : 101324.91 101316.16 101307.43
Prg max/avg/min : 101325 101324 101319.75
U   max/avg/min : 0.23987775 0.10173092 -0.020167701
Prg max-min : 5.2490896
 
sngrad(rho) :0.42955597 0.21403358 -0.078192749
 
Iteration Number = 44

DILUPBiCG:  Solving for Ux, Initial residual = 0.02656698, Final residual = 1.5476e-05, No Iterations 2
DILUPBiCG:  Solving for Uy, Initial residual = 0.016650964, Final residual = 1.7186516e-07, No Iterations 3
DILUPBiCG:  Solving for Uz, Initial residual = 0.025863994, Final residual = 3.9852828e-06, No Iterations 2
DILUPBiCG:  Solving for h, Initial residual = 0.0050176263, Final residual = 1.9920273e-06, No Iterations 8
GAMG:  Solving for p_rgh, Initial residual = 0.029736946, Final residual = 2.2509176e-05, No Iterations 3
time step continuity errors : sum local = 0.00068736438, global = 0.00019517881, cumulative = 0.0032634949
ExecutionTime = 5.32 s  ClockTime = 5 s
Inflow      : 2.7311306e-05 [kg/s]
Outflow     : 2.7474085e-05 [kg/s]
EnergyInflow  : 8.0694585 [W]
EnergyOutflow : 8.345737 [W]
EnergyBalance : 0.27627847 [W]
rho max/avg/min : 1.2016457 1.0698912 0.83939308
T   max/avg/min : 420.37797 334.72064 293.69313
P   max/avg/min : 101324.91 101316.15 101307.42
Prg max/avg/min : 101325 101323.99 101319.72
U   max/avg/min : 0.25123114 0.10606884 -0.01791898
Prg max-min : 5.2746398
 
sngrad(rho) :0.41361829 0.20097593 -0.081312157
 
Iteration Number = 45

DILUPBiCG:  Solving for Ux, Initial residual = 0.022922968, Final residual = 1.1771213e-05, No Iterations 2
DILUPBiCG:  Solving for Uy, Initial residual = 0.016160218, Final residual = 6.4525471e-06, No Iterations 2
DILUPBiCG:  Solving for Uz, Initial residual = 0.025463447, Final residual = 4.0082954e-06, No Iterations 2
DILUPBiCG:  Solving for h, Initial residual = 0.0048133232, Final residual = 3.605205e-06, No Iterations 7
GAMG:  Solving for p_rgh, Initial residual = 0.028246342, Final residual = 1.5973267e-05, No Iterations 3
time step continuity errors : sum local = 0.00045668113, global = 0.00015167007, cumulative = 0.003415165
ExecutionTime = 5.34 s  ClockTime = 5 s
Inflow      : 2.9601956e-05 [kg/s]
Outflow     : 2.9728449e-05 [kg/s]
EnergyInflow  : 8.7462591 [W]
EnergyOutflow : 9.0275908 [W]
EnergyBalance : 0.2813317 [W]
rho max/avg/min : 1.2016459 1.069048 0.83808615
T   max/avg/min : 421.03349 335.0594 293.69308
P   max/avg/min : 101324.91 101316.15 101307.42
Prg max/avg/min : 101325 101323.98 101319.7
U   max/avg/min : 0.26267769 0.11041432 -0.015650524
Prg max-min : 5.3002119
 
sngrad(rho) :0.39827006 0.18890573 -0.091795696
 
Iteration Number = 46

DILUPBiCG:  Solving for Ux, Initial residual = 0.025049634, Final residual = 1.28445e-05, No Iterations 2
DILUPBiCG:  Solving for Uy, Initial residual = 0.015601286, Final residual = 6.3638828e-06, No Iterations 2
DILUPBiCG:  Solving for Uz, Initial residual = 0.024514276, Final residual = 3.8332575e-06, No Iterations 2
DILUPBiCG:  Solving for h, Initial residual = 0.0046116811, Final residual = 1.9514531e-06, No Iterations 7
GAMG:  Solving for p_rgh, Initial residual = 0.025288035, Final residual = 1.1722519e-05, No Iterations 3
time step continuity errors : sum local = 0.00031653683, global = -1.9774066e-05, cumulative = 0.0033953909
ExecutionTime = 5.37 s  ClockTime = 5 s
Inflow      : 3.1895598e-05 [kg/s]
Outflow     : 3.1879107e-05 [kg/s]
EnergyInflow  : 9.4239436 [W]
EnergyOutflow : 9.6777597 [W]
EnergyBalance : 0.2538161 [W]
rho max/avg/min : 1.201646 1.0682645 0.83671942
T   max/avg/min : 421.72119 335.38112 293.69295
P   max/avg/min : 101324.91 101316.15 101307.41
Prg max/avg/min : 101325 101323.97 101319.67
U   max/avg/min : 0.2742208 0.1147522 -0.013000281
Prg max-min : 5.3269817
 
sngrad(rho) :0.39037605 0.17738345 -0.10762773
 
Iteration Number = 47

DILUPBiCG:  Solving for Ux, Initial residual = 0.024169951, Final residual = 1.7297077e-05, No Iterations 2
DILUPBiCG:  Solving for Uy, Initial residual = 0.016562564, Final residual = 1.145717e-05, No Iterations 2
DILUPBiCG:  Solving for Uz, Initial residual = 0.023724753, Final residual = 3.6462251e-06, No Iterations 2
DILUPBiCG:  Solving for h, Initial residual = 0.0044177691, Final residual = 1.6644089e-06, No Iterations 7
GAMG:  Solving for p_rgh, Initial residual = 0.022321012, Final residual = 1.0639865e-05, No Iterations 3
time step continuity errors : sum local = 0.00027269052, global = -0.00014511716, cumulative = 0.0032502738
ExecutionTime = 5.41 s  ClockTime = 5 s
Inflow      : 3.4092023e-05 [kg/s]
Outflow     : 3.3970995e-05 [kg/s]
EnergyInflow  : 10.072904 [W]
EnergyOutflow : 10.309519 [W]
EnergyBalance : 0.23661472 [W]
rho max/avg/min : 1.2016461 1.0675353 0.83531071
T   max/avg/min : 422.43237 335.68706 293.69277
P   max/avg/min : 101324.91 101316.15 101307.4
Prg max/avg/min : 101325 101323.96 101319.64
U   max/avg/min : 0.28585083 0.1190668 -0.010317903
Prg max-min : 5.3536285
 
sngrad(rho) :0.38335736 0.16645364 -0.12186682
 
Iteration Number = 48

DILUPBiCG:  Solving for Ux, Initial residual = 0.026549957, Final residual = 3.3764135e-07, No Iterations 3
DILUPBiCG:  Solving for Uy, Initial residual = 0.017503988, Final residual = 1.9184779e-07, No Iterations 3
DILUPBiCG:  Solving for Uz, Initial residual = 0.022732848, Final residual = 3.4217239e-06, No Iterations 2
DILUPBiCG:  Solving for h, Initial residual = 0.004230746, Final residual = 9.1123449e-07, No Iterations 7
GAMG:  Solving for p_rgh, Initial residual = 0.020296798, Final residual = 1.0488511e-05, No Iterations 4
time step continuity errors : sum local = 0.0002571171, global = -7.5075266e-05, cumulative = 0.0031751985
ExecutionTime = 5.43 s  ClockTime = 5 s
Inflow      : 3.5983929e-05 [kg/s]
Outflow     : 3.5921317e-05 [kg/s]
EnergyInflow  : 10.631891 [W]
EnergyOutflow : 10.898221 [W]
EnergyBalance : 0.26632957 [W]
rho max/avg/min : 1.2016464 1.066855 0.8338722
T   max/avg/min : 423.16108 335.97849 293.69254
P   max/avg/min : 101324.91 101316.15 101307.4
Prg max/avg/min : 101325 101323.95 101319.62
U   max/avg/min : 0.29753179 0.12325129 -0.0083476604
Prg max-min : 5.3752387
 
sngrad(rho) :0.38083025 0.15589096 -0.13590848
 
Iteration Number = 49

DILUPBiCG:  Solving for Ux, Initial residual = 0.026121411, Final residual = 3.4662235e-07, No Iterations 3
DILUPBiCG:  Solving for Uy, Initial residual = 0.018047801, Final residual = 9.0137011e-06, No Iterations 2
DILUPBiCG:  Solving for Uz, Initial residual = 0.020504072, Final residual = 2.8744075e-06, No Iterations 2
DILUPBiCG:  Solving for h, Initial residual = 0.0040585088, Final residual = 4.9892079e-07, No Iterations 7
GAMG:  Solving for p_rgh, Initial residual = 0.025683472, Final residual = 1.2249187e-05, No Iterations 3
time step continuity errors : sum local = 0.00028806283, global = 4.6575233e-05, cumulative = 0.0032217737
ExecutionTime = 5.47 s  ClockTime = 5 s
Inflow      : 3.7735559e-05 [kg/s]
Outflow     : 3.7774403e-05 [kg/s]
EnergyInflow  : 11.149431 [W]
EnergyOutflow : 11.45706 [W]
EnergyBalance : 0.30762867 [W]
rho max/avg/min : 1.2016465 1.0662182 0.83241238
T   max/avg/min : 423.90319 336.25678 293.69229
P   max/avg/min : 101324.91 101316.14 101307.4
Prg max/avg/min : 101325 101323.94 101319.59
U   max/avg/min : 0.30925933 0.12738155 -0.0052674589
Prg max-min : 5.4042782
 
sngrad(rho) :0.34067084 0.13999797 -0.14744755
 
Iteration Number = 50

DILUPBiCG:  Solving for Ux, Initial residual = 0.027125815, Final residual = 3.9576767e-07, No Iterations 3
DILUPBiCG:  Solving for Uy, Initial residual = 0.018715685, Final residual = 6.9300642e-06, No Iterations 2
DILUPBiCG:  Solving for Uz, Initial residual = 0.020248381, Final residual = 2.9184246e-06, No Iterations 2
DILUPBiCG:  Solving for h, Initial residual = 0.0038873604, Final residual = 4.0134679e-07, No Iterations 7
GAMG:  Solving for G, Initial residual = 0.061090911, Final residual = 0.019755033, No Iterations 1000
GAMG:  Solving for p_rgh, Initial residual = 0.023028024, Final residual = 1.4946687e-05, No Iterations 3
time step continuity errors : sum local = 0.00033876589, global = -0.00018418053, cumulative = 0.0030375932
ExecutionTime = 6.28 s  ClockTime = 6 s
Inflow      : 3.9622661e-05 [kg/s]
Outflow     : 3.9469054e-05 [kg/s]
EnergyInflow  : 11.706999 [W]
EnergyOutflow : 11.967751 [W]
EnergyBalance : 0.2607523 [W]
rho max/avg/min : 1.2016469 1.0656199 0.83093733
T   max/avg/min : 424.65565 336.52316 293.69194
P   max/avg/min : 101324.91 101316.14 101307.39
Prg max/avg/min : 101325 101323.94 101319.57
U   max/avg/min : 0.32100544 0.13143577 -0.0017410346
Prg max-min : 5.4274719
 
sngrad(rho) :0.32805234 0.12887134 -0.15734279
 
Iteration Number = 51

DILUPBiCG:  Solving for Ux, Initial residual = 0.028166605, Final residual = 4.0688087e-07, No Iterations 3
DILUPBiCG:  Solving for Uy, Initial residual = 0.018773396, Final residual = 7.6386225e-06, No Iterations 2
DILUPBiCG:  Solving for Uz, Initial residual = 0.018675591, Final residual = 2.6368867e-06, No Iterations 2
DILUPBiCG:  Solving for h, Initial residual = 0.0041608515, Final residual = 4.7599229e-07, No Iterations 7
GAMG:  Solving for p_rgh, Initial residual = 0.018684621, Final residual = 1.0574684e-05, No Iterations 3
time step continuity errors : sum local = 0.00023158697, global = 2.1500844e-05, cumulative = 0.0030590941
ExecutionTime = 6.31 s  ClockTime = 6 s
Inflow      : 4.08933e-05 [kg/s]
Outflow     : 4.0911232e-05 [kg/s]
EnergyInflow  : 12.082424 [W]
EnergyOutflow : 12.402264 [W]
EnergyBalance : 0.31983941 [W]
rho max/avg/min : 1.2016472 1.0651639 0.83157444
T   max/avg/min : 424.3303 336.72552 293.69159
P   max/avg/min : 101324.91 101316.15 101307.4
Prg max/avg/min : 101325 101323.94 101319.58
U   max/avg/min : 0.33276414 0.13529907 0
Prg max-min : 5.4150719
 
sngrad(rho) :0.31631551 0.099899409 -0.16534998
 
Iteration Number = 52

DILUPBiCG:  Solving for Ux, Initial residual = 0.026547564, Final residual = 4.1468457e-07, No Iterations 3
DILUPBiCG:  Solving for Uy, Initial residual = 0.020665935, Final residual = 1.6128379e-05, No Iterations 2
DILUPBiCG:  Solving for Uz, Initial residual = 0.016404631, Final residual = 2.1225471e-06, No Iterations 2
DILUPBiCG:  Solving for h, Initial residual = 0.0030389934, Final residual = 2.3794711e-06, No Iterations 6
GAMG:  Solving for p_rgh, Initial residual = 0.013039962, Final residual = 7.022283e-06, No Iterations 3
time step continuity errors : sum local = 0.00015028407, global = -7.2655849e-06, cumulative = 0.0030518285
ExecutionTime = 6.34 s  ClockTime = 6 s
Inflow      : 4.2111309e-05 [kg/s]
Outflow     : 4.2105249e-05 [kg/s]
EnergyInflow  : 12.4423 [W]
EnergyOutflow : 12.761856 [W]
EnergyBalance : 0.31955628 [W]
rho max/avg/min : 1.2016475 1.0647357 0.83124831
T   max/avg/min : 424.49679 336.91984 293.6912
P   max/avg/min : 101324.91 101316.15 101307.39
Prg max/avg/min : 101325 101323.93 101319.57
U   max/avg/min : 0.34453369 0.13904712 0
Prg max-min : 5.4238166
 
sngrad(rho) :0.30488288 0.089696964 -0.17295538
 
Iteration Number = 53

DILUPBiCG:  Solving for Ux, Initial residual = 0.025972111, Final residual = 5.2351623e-07, No Iterations 3
DILUPBiCG:  Solving for Uy, Initial residual = 0.02132905, Final residual = 8.6030026e-06, No Iterations 2
DILUPBiCG:  Solving for Uz, Initial residual = 0.015844853, Final residual = 2.1657161e-06, No Iterations 2
DILUPBiCG:  Solving for h, Initial residual = 0.0028100295, Final residual = 8.4857038e-07, No Iterations 6
GAMG:  Solving for p_rgh, Initial residual = 0.010482914, Final residual = 7.3084652e-06, No Iterations 4
time step continuity errors : sum local = 0.00015439717, global = -4.7573018e-05, cumulative = 0.0030042554
ExecutionTime = 6.37 s  ClockTime = 6 s
Inflow      : 4.3248183e-05 [kg/s]
Outflow     : 4.3208507e-05 [kg/s]
EnergyInflow  : 12.778203 [W]
EnergyOutflow : 13.093434 [W]
EnergyBalance : 0.31523056 [W]
rho max/avg/min : 1.2016479 1.0643365 0.83064198
T   max/avg/min : 424.80663 337.10446 293.69078
P   max/avg/min : 101324.91 101316.15 101307.39
Prg max/avg/min : 101325 101323.93 101319.57
U   max/avg/min : 0.35632606 0.14270556 0
Prg max-min : 5.4324685
 
sngrad(rho) :0.29281684 0.081163335 -0.17801574
 
Iteration Number = 54

DILUPBiCG:  Solving for Ux, Initial residual = 0.024858875, Final residual = 5.2843639e-07, No Iterations 3
DILUPBiCG:  Solving for Uy, Initial residual = 0.021468016, Final residual = 8.310412e-06, No Iterations 2
DILUPBiCG:  Solving for Uz, Initial residual = 0.014657661, Final residual = 1.9753067e-06, No Iterations 2
DILUPBiCG:  Solving for h, Initial residual = 0.0026786062, Final residual = 7.0340568e-07, No Iterations 6
GAMG:  Solving for p_rgh, Initial residual = 0.0096495384, Final residual = 6.9569535e-06, No Iterations 4
time step continuity errors : sum local = 0.00014504241, global = -2.4021475e-05, cumulative = 0.002980234
ExecutionTime = 6.4 s  ClockTime = 6 s
Inflow      : 4.4195696e-05 [kg/s]
Outflow     : 4.4175662e-05 [kg/s]
EnergyInflow  : 13.058158 [W]
EnergyOutflow : 13.383881 [W]
EnergyBalance : 0.3257231 [W]
rho max/avg/min : 1.2016481 1.0639642 0.82989946
T   max/avg/min : 425.18671 337.27983 293.69035
P   max/avg/min : 101324.91 101316.15 101307.39
Prg max/avg/min : 101325 101323.93 101319.55
U   max/avg/min : 0.36812479 0.14623698 0
Prg max-min : 5.4425695
 
sngrad(rho) :0.28056626 0.074820948 -0.18340326
 
Iteration Number = 55

DILUPBiCG:  Solving for Ux, Initial residual = 0.023847258, Final residual = 6.8841809e-07, No Iterations 3
DILUPBiCG:  Solving for Uy, Initial residual = 0.022253763, Final residual = 1.1307495e-05, No Iterations 2
DILUPBiCG:  Solving for Uz, Initial residual = 0.013548516, Final residual = 1.9196762e-06, No Iterations 2
DILUPBiCG:  Solving for h, Initial residual = 0.0025560943, Final residual = 5.1618394e-07, No Iterations 6
GAMG:  Solving for p_rgh, Initial residual = 0.0090533478, Final residual = 7.7335691e-06, No Iterations 4
time step continuity errors : sum local = 0.00015960009, global = -1.0145628e-05, cumulative = 0.0029700883
ExecutionTime = 6.42 s  ClockTime = 6 s
Inflow      : 4.4962082e-05 [kg/s]
Outflow     : 4.495362e-05 [kg/s]
EnergyInflow  : 13.284596 [W]
EnergyOutflow : 13.617837 [W]
EnergyBalance : 0.33324126 [W]
rho max/avg/min : 1.2016485 1.0636162 0.82907338
T   max/avg/min : 425.61037 337.44661 293.68991
P   max/avg/min : 101324.91 101316.15 101307.39
Prg max/avg/min : 101325 101323.92 101319.54
U   max/avg/min : 0.37988708 0.14963858 0
Prg max-min : 5.4530576
 
sngrad(rho) :0.26835773 0.070087121 -0.18592919
 
Iteration Number = 56

DILUPBiCG:  Solving for Ux, Initial residual = 0.023314284, Final residual = 5.8685057e-07, No Iterations 3
DILUPBiCG:  Solving for Uy, Initial residual = 0.021863969, Final residual = 8.1904401e-06, No Iterations 2
DILUPBiCG:  Solving for Uz, Initial residual = 0.012495228, Final residual = 1.7846686e-06, No Iterations 2
DILUPBiCG:  Solving for h, Initial residual = 0.0024436805, Final residual = 4.4813245e-07, No Iterations 6
GAMG:  Solving for p_rgh, Initial residual = 0.0086763988, Final residual = 5.1636762e-06, No Iterations 4
time step continuity errors : sum local = 0.00010564128, global = -2.4779608e-05, cumulative = 0.0029453087
ExecutionTime = 6.46 s  ClockTime = 6 s
Inflow      : 4.5608097e-05 [kg/s]
Outflow     : 4.5587431e-05 [kg/s]
EnergyInflow  : 13.475469 [W]
EnergyOutflow : 13.808941 [W]
EnergyBalance : 0.3334724 [W]
rho max/avg/min : 1.201649 1.063291 0.82819053
T   max/avg/min : 426.06407 337.60523 293.68945
P   max/avg/min : 101324.91 101316.15 101307.39
Prg max/avg/min : 101325 101323.92 101319.53
U   max/avg/min : 0.39155707 0.15291672 0
Prg max-min : 5.4646229
 
sngrad(rho) :0.2561759 0.06633498 -0.18967054
 
Iteration Number = 57

DILUPBiCG:  Solving for Ux, Initial residual = 0.022252644, Final residual = 4.4431509e-07, No Iterations 3
DILUPBiCG:  Solving for Uy, Initial residual = 0.022485141, Final residual = 3.9503055e-07, No Iterations 3
DILUPBiCG:  Solving for Uz, Initial residual = 0.011689087, Final residual = 1.758939e-06, No Iterations 2
DILUPBiCG:  Solving for h, Initial residual = 0.0023420127, Final residual = 1.8535364e-06, No Iterations 5
GAMG:  Solving for p_rgh, Initial residual = 0.0083538696, Final residual = 3.2784439e-06, No Iterations 4
time step continuity errors : sum local = 6.6618097e-05, global = 1.8713701e-06, cumulative = 0.0029471801
ExecutionTime = 6.49 s  ClockTime = 6 s
Inflow      : 4.6082439e-05 [kg/s]
Outflow     : 4.6084e-05 [kg/s]
EnergyInflow  : 13.615619 [W]
EnergyOutflow : 13.959429 [W]
EnergyBalance : 0.34380976 [W]
rho max/avg/min : 1.2016492 1.0629877 0.82726702
T   max/avg/min : 426.53971 337.75598 293.68899
P   max/avg/min : 101324.91 101316.15 101307.4
Prg max/avg/min : 101325 101323.92 101319.52
U   max/avg/min : 0.40311461 0.15607685 0
Prg max-min : 5.4762697
 
sngrad(rho) :0.2440251 0.063155395 -0.19008214
 
Iteration Number = 58

DILUPBiCG:  Solving for Ux, Initial residual = 0.021569602, Final residual = 1.3376475e-05, No Iterations 2
DILUPBiCG:  Solving for Uy, Initial residual = 0.022401837, Final residual = 2.7173367e-07, No Iterations 3
DILUPBiCG:  Solving for Uz, Initial residual = 0.010930499, Final residual = 1.6777593e-06, No Iterations 2
DILUPBiCG:  Solving for h, Initial residual = 0.0022510333, Final residual = 1.4608103e-06, No Iterations 5
GAMG:  Solving for p_rgh, Initial residual = 0.0079959526, Final residual = 3.4117813e-06, No Iterations 4
time step continuity errors : sum local = 6.8946586e-05, global = -2.7385343e-05, cumulative = 0.0029197948
ExecutionTime = 6.52 s  ClockTime = 6 s
Inflow      : 4.6507534e-05 [kg/s]
Outflow     : 4.6484695e-05 [kg/s]
EnergyInflow  : 13.741218 [W]
EnergyOutflow : 14.081635 [W]
EnergyBalance : 0.34041666 [W]
rho max/avg/min : 1.2016492 1.0627048 0.82631378
T   max/avg/min : 427.03178 337.8994 293.68854
P   max/avg/min : 101324.91 101316.15 101307.4
Prg max/avg/min : 101325 101323.92 101319.51
U   max/avg/min : 0.41451232 0.15914431 0
Prg max-min : 5.490112
 
sngrad(rho) :0.23280056 0.060280399 -0.19233973
 
Iteration Number = 59

DILUPBiCG:  Solving for Ux, Initial residual = 0.020773596, Final residual = 5.3605117e-06, No Iterations 2
DILUPBiCG:  Solving for Uy, Initial residual = 0.023505887, Final residual = 2.0992803e-05, No Iterations 2
DILUPBiCG:  Solving for Uz, Initial residual = 0.01045287, Final residual = 1.6704449e-06, No Iterations 2
DILUPBiCG:  Solving for h, Initial residual = 0.0021688287, Final residual = 1.4152687e-06, No Iterations 5
GAMG:  Solving for p_rgh, Initial residual = 0.0076063346, Final residual = 2.8602046e-06, No Iterations 4
time step continuity errors : sum local = 5.7571729e-05, global = 2.7263932e-06, cumulative = 0.0029225212
ExecutionTime = 6.55 s  ClockTime = 6 s
Inflow      : 4.6794686e-05 [kg/s]
Outflow     : 4.679696e-05 [kg/s]
EnergyInflow  : 13.826061 [W]
EnergyOutflow : 14.177779 [W]
EnergyBalance : 0.35171763 [W]
rho max/avg/min : 1.2016494 1.0624412 0.82533841
T   max/avg/min : 427.53644 338.03575 293.68812
P   max/avg/min : 101324.91 101316.15 101307.4
Prg max/avg/min : 101325 101323.92 101319.5
U   max/avg/min : 0.42577733 0.1621038 0
Prg max-min : 5.5015738
 
sngrad(rho) :0.22226458 0.057469065 -0.19194848
 
Iteration Number = 60

DILUPBiCG:  Solving for Ux, Initial residual = 0.019390075, Final residual = 5.1115117e-06, No Iterations 2
DILUPBiCG:  Solving for Uy, Initial residual = 0.02317298, Final residual = 2.1962855e-07, No Iterations 3
DILUPBiCG:  Solving for Uz, Initial residual = 0.0097596796, Final residual = 1.5166345e-06, No Iterations 2
DILUPBiCG:  Solving for h, Initial residual = 0.0020952296, Final residual = 1.3984681e-06, No Iterations 5
GAMG:  Solving for G, Initial residual = 0.036240437, Final residual = 0.018348236, No Iterations 1000
GAMG:  Solving for p_rgh, Initial residual = 0.0072225359, Final residual = 3.4240343e-06, No Iterations 4
time step continuity errors : sum local = 6.8655775e-05, global = 2.9746704e-05, cumulative = 0.0029522679
ExecutionTime = 7.36 s  ClockTime = 7 s
Inflow      : 4.703453e-05 [kg/s]
Outflow     : 4.7059338e-05 [kg/s]
EnergyInflow  : 13.896926 [W]
EnergyOutflow : 14.259225 [W]
EnergyBalance : 0.36229934 [W]
rho max/avg/min : 1.2016497 1.0621959 0.82434674
T   max/avg/min : 428.05077 338.1654 293.68769
P   max/avg/min : 101324.91 101316.15 101307.4
Prg max/avg/min : 101325 101323.91 101319.48
U   max/avg/min : 0.43685896 0.16498221 0
Prg max-min : 5.5168164
 
sngrad(rho) :0.21227477 0.054716849 -0.19122637
 
Iteration Number = 61

DILUPBiCG:  Solving for Ux, Initial residual = 0.019140298, Final residual = 5.305082e-06, No Iterations 2
DILUPBiCG:  Solving for Uy, Initial residual = 0.023524901, Final residual = 1.754675e-05, No Iterations 2
DILUPBiCG:  Solving for Uz, Initial residual = 0.009450232, Final residual = 1.514112e-06, No Iterations 2
DILUPBiCG:  Solving for h, Initial residual = 0.0022304407, Final residual = 1.3799474e-06, No Iterations 5
GAMG:  Solving for p_rgh, Initial residual = 0.0068944556, Final residual = 2.3916469e-06, No Iterations 4
time step continuity errors : sum local = 4.7858699e-05, global = -1.8539272e-05, cumulative = 0.0029337286
ExecutionTime = 7.39 s  ClockTime = 7 s
Inflow      : 4.7284848e-05 [kg/s]
Outflow     : 4.7269387e-05 [kg/s]
EnergyInflow  : 13.970885 [W]
EnergyOutflow : 14.325212 [W]
EnergyBalance : 0.35432711 [W]
rho max/avg/min : 1.2016499 1.0620253 0.82460789
T   max/avg/min : 427.9152 338.25996 293.68731
P   max/avg/min : 101324.91 101316.15 101307.4
Prg max/avg/min : 101325 101323.91 101319.48
U   max/avg/min : 0.44798064 0.16779606 0
Prg max-min : 5.5123375
 
sngrad(rho) :0.20271221 0.042078548 -0.19073412
 
Iteration Number = 62

DILUPBiCG:  Solving for Ux, Initial residual = 0.017451642, Final residual = 5.6973602e-06, No Iterations 2
DILUPBiCG:  Solving for Uy, Initial residual = 0.024232952, Final residual = 1.2630989e-05, No Iterations 2
DILUPBiCG:  Solving for Uz, Initial residual = 0.0090499934, Final residual = 1.3760855e-06, No Iterations 2
DILUPBiCG:  Solving for h, Initial residual = 0.0016897121, Final residual = 1.2850943e-06, No Iterations 5
GAMG:  Solving for p_rgh, Initial residual = 0.0065054279, Final residual = 2.3810762e-06, No Iterations 4
time step continuity errors : sum local = 4.7499493e-05, global = -2.8654781e-06, cumulative = 0.0029308631
ExecutionTime = 7.42 s  ClockTime = 7 s
Inflow      : 4.7464342e-05 [kg/s]
Outflow     : 4.7461952e-05 [kg/s]
EnergyInflow  : 14.023919 [W]
EnergyOutflow : 14.385979 [W]
EnergyBalance : 0.36205976 [W]
rho max/avg/min : 1.2016499 1.0618702 0.82429282
T   max/avg/min : 428.07877 338.34928 293.68694
P   max/avg/min : 101324.91 101316.15 101307.4
Prg max/avg/min : 101325 101323.91 101319.48
U   max/avg/min : 0.45905602 0.17053957 0
Prg max-min : 5.5165282
 
sngrad(rho) :0.19363976 0.039515345 -0.18773901
 
Iteration Number = 63

DILUPBiCG:  Solving for Ux, Initial residual = 0.017485176, Final residual = 5.5849579e-06, No Iterations 2
DILUPBiCG:  Solving for Uy, Initial residual = 0.023529088, Final residual = 8.8567517e-06, No Iterations 2
DILUPBiCG:  Solving for Uz, Initial residual = 0.0086579918, Final residual = 1.2803784e-06, No Iterations 2
DILUPBiCG:  Solving for h, Initial residual = 0.00160412, Final residual = 1.2424779e-06, No Iterations 5
GAMG:  Solving for p_rgh, Initial residual = 0.0061826864, Final residual = 2.73735e-06, No Iterations 4
time step continuity errors : sum local = 5.4461683e-05, global = -6.6502177e-06, cumulative = 0.0029242129
ExecutionTime = 7.45 s  ClockTime = 7 s
Inflow      : 4.7647452e-05 [kg/s]
Outflow     : 4.7641906e-05 [kg/s]
EnergyInflow  : 14.078021 [W]
EnergyOutflow : 14.442946 [W]
EnergyBalance : 0.36492512 [W]
rho max/avg/min : 1.2016498 1.0617318 0.82380858
T   max/avg/min : 428.3304 338.43245 293.6866
P   max/avg/min : 101324.91 101316.15 101307.4
Prg max/avg/min : 101325 101323.91 101319.47
U   max/avg/min : 0.46999833 0.17322424 0
Prg max-min : 5.5237929
 
sngrad(rho) :0.18438059 0.036587465 -0.1856229
 
Iteration Number = 64

DILUPBiCG:  Solving for Ux, Initial residual = 0.016593224, Final residual = 5.7961583e-06, No Iterations 2
DILUPBiCG:  Solving for Uy, Initial residual = 0.023042214, Final residual = 2.1315238e-05, No Iterations 2
DILUPBiCG:  Solving for Uz, Initial residual = 0.0083850205, Final residual = 1.2205651e-06, No Iterations 2
DILUPBiCG:  Solving for h, Initial residual = 0.0015539774, Final residual = 1.2201854e-06, No Iterations 5
GAMG:  Solving for p_rgh, Initial residual = 0.0058827034, Final residual = 1.5026056e-06, No Iterations 4
time step continuity errors : sum local = 2.9824917e-05, global = -9.5186622e-06, cumulative = 0.0029146942
ExecutionTime = 7.48 s  ClockTime = 7 s
Inflow      : 4.7830664e-05 [kg/s]
Outflow     : 4.7822725e-05 [kg/s]
EnergyInflow  : 14.132153 [W]
EnergyOutflow : 14.500063 [W]
EnergyBalance : 0.36790999 [W]
rho max/avg/min : 1.2016496 1.0616094 0.82324155
T   max/avg/min : 428.62542 338.50965 293.6863
P   max/avg/min : 101324.91 101316.15 101307.4
Prg max/avg/min : 101325 101323.91 101319.47
U   max/avg/min : 0.48079156 0.17585407 0
Prg max-min : 5.5320014
 
sngrad(rho) :0.17505582 0.03368195 -0.18382634
 
Iteration Number = 65

DILUPBiCG:  Solving for Ux, Initial residual = 0.015275177, Final residual = 5.646416e-06, No Iterations 2
DILUPBiCG:  Solving for Uy, Initial residual = 0.022404995, Final residual = 8.4223609e-06, No Iterations 2
DILUPBiCG:  Solving for Uz, Initial residual = 0.0080773592, Final residual = 1.134571e-06, No Iterations 2
DILUPBiCG:  Solving for h, Initial residual = 0.0015064138, Final residual = 1.2281582e-06, No Iterations 5
GAMG:  Solving for p_rgh, Initial residual = 0.0056004736, Final residual = 5.1609461e-06, No Iterations 4
time step continuity errors : sum local = 0.00010214657, global = -1.0141385e-05, cumulative = 0.0029045528
ExecutionTime = 7.51 s  ClockTime = 7 s
Inflow      : 4.801707e-05 [kg/s]
Outflow     : 4.8008612e-05 [kg/s]
EnergyInflow  : 14.187229 [W]
EnergyOutflow : 14.558548 [W]
EnergyBalance : 0.37131911 [W]
rho max/avg/min : 1.2016494 1.0615016 0.82262393
T   max/avg/min : 428.94722 338.58127 293.68602
P   max/avg/min : 101324.91 101316.15 101307.4
Prg max/avg/min : 101325 101323.91 101319.46
U   max/avg/min : 0.49141292 0.1784361 0
[...]
time step continuity errors : sum local = 5.7236474e-07, global = -1.9046026e-07, cumulative = 0.0020373631
ExecutionTime = 79.81 s  ClockTime = 80 s
Inflow      : 4.3042823e-05 [kg/s]
Outflow     : 4.3042664e-05 [kg/s]
EnergyInflow  : 12.717527 [W]
EnergyOutflow : 13.152532 [W]
EnergyBalance : 0.43500449 [W]
rho max/avg/min : 1.2016456 1.0784589 0.82310549
T   max/avg/min : 428.69625 333.12672 293.6857
P   max/avg/min : 101324.91 101316.16 101307.4
Prg max/avg/min : 101325 101324.04 101319.46
U   max/avg/min : 1.2864617 0.35243802 0
Prg max-min : 5.5392651
 
sngrad(rho) :-0.00013880973 -0.00020514564 -0.00031740389
 
Iteration Number = 739

DILUPBiCG:  Solving for Ux, Initial residual = 6.3577008e-06, Final residual = 9.351359e-10, No Iterations 2
DILUPBiCG:  Solving for Uy, Initial residual = 0.015513332, Final residual = 8.9144535e-06, No Iterations 2
DILUPBiCG:  Solving for Uz, Initial residual = 5.088983e-06, Final residual = 1.9090085e-09, No Iterations 2
DILUPBiCG:  Solving for h, Initial residual = 1.1067682e-06, Final residual = 5.924183e-09, No Iterations 3
GAMG:  Solving for p_rgh, Initial residual = 1.0642727e-06, Final residual = 3.3438487e-08, No Iterations 1
time step continuity errors : sum local = 5.6259839e-07, global = -1.8701704e-07, cumulative = 0.0020371761
ExecutionTime = 79.84 s  ClockTime = 80 s
Inflow      : 4.3042152e-05 [kg/s]
Outflow     : 4.3041996e-05 [kg/s]
EnergyInflow  : 12.717329 [W]
EnergyOutflow : 13.152334 [W]
EnergyBalance : 0.43500544 [W]
rho max/avg/min : 1.2016456 1.0784592 0.82310645
T   max/avg/min : 428.69575 333.12662 293.6857
P   max/avg/min : 101324.91 101316.16 101307.4
Prg max/avg/min : 101325 101324.04 101319.46
U   max/avg/min : 1.2864735 0.35243991 0
Prg max-min : 5.5392513
 
sngrad(rho) :-0.00013880091 -0.00020528683 -0.00031649045
 
Iteration Number = 740

DILUPBiCG:  Solving for Ux, Initial residual = 6.2641858e-06, Final residual = 8.2518191e-10, No Iterations 2
DILUPBiCG:  Solving for Uy, Initial residual = 0.014374184, Final residual = 8.984867e-06, No Iterations 2
DILUPBiCG:  Solving for Uz, Initial residual = 5.0489692e-06, Final residual = 1.8061004e-09, No Iterations 2
DILUPBiCG:  Solving for h, Initial residual = 1.1061498e-06, Final residual = 6.0243118e-09, No Iterations 3
GAMG:  Solving for G, Initial residual = 0.018876357, Final residual = 0.019121953, No Iterations 1000
GAMG:  Solving for p_rgh, Initial residual = 1.0517575e-06, Final residual = 3.3057715e-08, No Iterations 1
time step continuity errors : sum local = 5.5735041e-07, global = -1.8410376e-07, cumulative = 0.002036992
ExecutionTime = 80.64 s  ClockTime = 81 s
Inflow      : 4.3041482e-05 [kg/s]
Outflow     : 4.3041329e-05 [kg/s]
EnergyInflow  : 12.717131 [W]
EnergyOutflow : 13.152137 [W]
EnergyBalance : 0.43500624 [W]
rho max/avg/min : 1.2016456 1.0784594 0.8231074
T   max/avg/min : 428.69525 333.12651 293.6857
P   max/avg/min : 101324.91 101316.16 101307.4
Prg max/avg/min : 101325 101324.04 101319.46
U   max/avg/min : 1.2864851 0.35244178 0
Prg max-min : 5.5392374
 
sngrad(rho) :-0.00013879569 -0.00020543271 -0.00031575054
 
Iteration Number = 741

DILUPBiCG:  Solving for Ux, Initial residual = 6.2572362e-06, Final residual = 8.8336358e-10, No Iterations 2
DILUPBiCG:  Solving for Uy, Initial residual = 0.014763245, Final residual = 7.7945345e-06, No Iterations 2
DILUPBiCG:  Solving for Uz, Initial residual = 5.0090854e-06, Final residual = 1.698904e-09, No Iterations 2
DILUPBiCG:  Solving for h, Initial residual = 1.5452898e-06, Final residual = 7.4884343e-09, No Iterations 3
GAMG:  Solving for p_rgh, Initial residual = 1.1865779e-06, Final residual = 3.2679572e-08, No Iterations 1
time step continuity errors : sum local = 5.5061607e-07, global = -1.8148228e-07, cumulative = 0.0020368105
ExecutionTime = 80.67 s  ClockTime = 81 s
Inflow      : 4.3040814e-05 [kg/s]
Outflow     : 4.3040662e-05 [kg/s]
EnergyInflow  : 12.716933 [W]
EnergyOutflow : 13.15194 [W]
EnergyBalance : 0.43500696 [W]
rho max/avg/min : 1.2016456 1.0784596 0.82310618
T   max/avg/min : 428.69589 333.12645 293.6857
P   max/avg/min : 101324.91 101316.16 101307.4
Prg max/avg/min : 101325 101324.04 101319.46
U   max/avg/min : 1.2864967 0.35244362 0
Prg max-min : 5.5392555
 
sngrad(rho) :9.7014568e-05 -0.00018877266 -0.00031514692
 
Iteration Number = 742

DILUPBiCG:  Solving for Ux, Initial residual = 6.1787055e-06, Final residual = 8.4782571e-10, No Iterations 2
DILUPBiCG:  Solving for Uy, Initial residual = 0.015097246, Final residual = 9.7541151e-06, No Iterations 2
DILUPBiCG:  Solving for Uz, Initial residual = 4.9699609e-06, Final residual = 1.6057923e-09, No Iterations 2
DILUPBiCG:  Solving for h, Initial residual = 9.6446181e-07, Final residual = 5.4814145e-09, No Iterations 3
GAMG:  Solving for p_rgh, Initial residual = 1.0694985e-06, Final residual = 3.2328215e-08, No Iterations 1
time step continuity errors : sum local = 5.4493621e-07, global = -1.7926228e-07, cumulative = 0.0020366313
ExecutionTime = 80.69 s  ClockTime = 81 s
Inflow      : 4.3040146e-05 [kg/s]
Outflow     : 4.3039997e-05 [kg/s]
EnergyInflow  : 12.716736 [W]
EnergyOutflow : 13.151744 [W]
EnergyBalance : 0.43500758 [W]
rho max/avg/min : 1.2016456 1.0784598 0.82310594
T   max/avg/min : 428.69602 333.12638 293.6857
P   max/avg/min : 101324.91 101316.16 101307.4
Prg max/avg/min : 101325 101324.04 101319.46
U   max/avg/min : 1.2865082 0.35244544 0
Prg max-min : 5.5392591
 
sngrad(rho) :-3.276841e-05 -0.00018916915 -0.00031459774
 
Iteration Number = 743

DILUPBiCG:  Solving for Ux, Initial residual = 6.1388612e-06, Final residual = 8.1824037e-10, No Iterations 2
DILUPBiCG:  Solving for Uy, Initial residual = 0.014618487, Final residual = 8.8783659e-06, No Iterations 2
DILUPBiCG:  Solving for Uz, Initial residual = 4.9299462e-06, Final residual = 1.5180441e-09, No Iterations 2
DILUPBiCG:  Solving for h, Initial residual = 8.1438068e-07, Final residual = 5.008064e-09, No Iterations 3
GAMG:  Solving for p_rgh, Initial residual = 1.0616143e-06, Final residual = 3.1889149e-08, No Iterations 1
time step continuity errors : sum local = 5.3747333e-07, global = -1.7708927e-07, cumulative = 0.0020364542
ExecutionTime = 80.73 s  ClockTime = 81 s
Inflow      : 4.303948e-05 [kg/s]
Outflow     : 4.3039332e-05 [kg/s]
EnergyInflow  : 12.716539 [W]
EnergyOutflow : 13.151548 [W]
EnergyBalance : 0.43500818 [W]
rho max/avg/min : 1.2016456 1.07846 0.82310597
T   max/avg/min : 428.696 333.12632 293.6857
P   max/avg/min : 101324.91 101316.16 101307.4
Prg max/avg/min : 101325 101324.04 101319.46
U   max/avg/min : 1.2865195 0.35244724 0
Prg max-min : 5.5392587
 
sngrad(rho) :-7.0706484e-05 -0.00018885516 -0.00031368752
 
Iteration Number = 744

DILUPBiCG:  Solving for Ux, Initial residual = 6.0882319e-06, Final residual = 8.4222133e-10, No Iterations 2
DILUPBiCG:  Solving for Uy, Initial residual = 0.015055763, Final residual = 6.2618991e-06, No Iterations 2
DILUPBiCG:  Solving for Uz, Initial residual = 4.891479e-06, Final residual = 1.4279147e-09, No Iterations 2
DILUPBiCG:  Solving for h, Initial residual = 7.3255013e-07, Final residual = 4.7538082e-09, No Iterations 3
GAMG:  Solving for p_rgh, Initial residual = 1.064088e-06, Final residual = 3.1723373e-08, No Iterations 1
time step continuity errors : sum local = 5.3403561e-07, global = -1.7472638e-07, cumulative = 0.0020362794
ExecutionTime = 80.76 s  ClockTime = 81 s
Inflow      : 4.3038814e-05 [kg/s]
Outflow     : 4.3038669e-05 [kg/s]
EnergyInflow  : 12.716343 [W]
EnergyOutflow : 13.151352 [W]
EnergyBalance : 0.43500882 [W]
rho max/avg/min : 1.2016456 1.0784601 0.82310615
T   max/avg/min : 428.69591 333.12626 293.6857
P   max/avg/min : 101324.91 101316.16 101307.4
Prg max/avg/min : 101325 101324.04 101319.46
U   max/avg/min : 1.2865307 0.35244901 0
Prg max-min : 5.5392562
 
sngrad(rho) :-8.9430879e-05 -0.00018847185 -0.00031242138
 
Iteration Number = 745

DILUPBiCG:  Solving for Ux, Initial residual = 6.0444252e-06, Final residual = 8.2400098e-10, No Iterations 2
DILUPBiCG:  Solving for Uy, Initial residual = 0.014681311, Final residual = 8.0647746e-06, No Iterations 2
DILUPBiCG:  Solving for Uz, Initial residual = 4.8531164e-06, Final residual = 1.3500295e-09, No Iterations 2
DILUPBiCG:  Solving for h, Initial residual = 6.9203419e-07, Final residual = 4.6234898e-09, No Iterations 3
GAMG:  Solving for p_rgh, Initial residual = 1.0643916e-06, Final residual = 3.1289413e-08, No Iterations 1
time step continuity errors : sum local = 5.2817707e-07, global = -1.718712e-07, cumulative = 0.0020361076
ExecutionTime = 80.79 s  ClockTime = 81 s
Inflow      : 4.3038149e-05 [kg/s]
Outflow     : 4.3038006e-05 [kg/s]
EnergyInflow  : 12.716146 [W]
EnergyOutflow : 13.151156 [W]
EnergyBalance : 0.43500959 [W]
rho max/avg/min : 1.2016456 1.0784603 0.82310642
T   max/avg/min : 428.69577 333.1262 293.6857
P   max/avg/min : 101324.91 101316.16 101307.4
Prg max/avg/min : 101325 101324.04 101319.46
U   max/avg/min : 1.2865419 0.35245077 0
Prg max-min : 5.5392525
 
sngrad(rho) :-0.00010130523 -0.0001881093 -0.00031077004
 
Iteration Number = 746

DILUPBiCG:  Solving for Ux, Initial residual = 5.9900035e-06, Final residual = 7.9415709e-10, No Iterations 2
DILUPBiCG:  Solving for Uy, Initial residual = 0.015189646, Final residual = 8.5914387e-07, No Iterations 3
DILUPBiCG:  Solving for Uz, Initial residual = 4.8154728e-06, Final residual = 1.2752697e-09, No Iterations 2
DILUPBiCG:  Solving for h, Initial residual = 6.7356503e-07, Final residual = 4.609475e-09, No Iterations 3
GAMG:  Solving for p_rgh, Initial residual = 1.0624122e-06, Final residual = 3.0951197e-08, No Iterations 1
time step continuity errors : sum local = 5.2187361e-07, global = -1.6937044e-07, cumulative = 0.0020359382
ExecutionTime = 80.82 s  ClockTime = 81 s
Inflow      : 4.3037485e-05 [kg/s]
Outflow     : 4.3037344e-05 [kg/s]
EnergyInflow  : 12.71595 [W]
EnergyOutflow : 13.15096 [W]
EnergyBalance : 0.43501027 [W]
rho max/avg/min : 1.2016456 1.0784605 0.82310675
T   max/avg/min : 428.69559 333.12613 293.6857
P   max/avg/min : 101324.91 101316.16 101307.4
Prg max/avg/min : 101325 101324.04 101319.46
U   max/avg/min : 1.2865529 0.3524525 0
Prg max-min : 5.5392477
 
sngrad(rho) :-0.00010983865 -0.00018778162 -0.00030877989
 
Iteration Number = 747

DILUPBiCG:  Solving for Ux, Initial residual = 5.9446971e-06, Final residual = 8.2944944e-10, No Iterations 2
DILUPBiCG:  Solving for Uy, Initial residual = 0.015125843, Final residual = 1.2543412e-05, No Iterations 2
DILUPBiCG:  Solving for Uz, Initial residual = 4.7781061e-06, Final residual = 1.2029576e-09, No Iterations 2
DILUPBiCG:  Solving for h, Initial residual = 6.6378022e-07, Final residual = 4.478212e-09, No Iterations 3
GAMG:  Solving for p_rgh, Initial residual = 1.0573351e-06, Final residual = 3.057123e-08, No Iterations 1
time step continuity errors : sum local = 5.1710625e-07, global = -1.6650875e-07, cumulative = 0.0020357717
ExecutionTime = 80.84 s  ClockTime = 81 s
Inflow      : 4.3036821e-05 [kg/s]
Outflow     : 4.3036682e-05 [kg/s]
EnergyInflow  : 12.715754 [W]
EnergyOutflow : 13.150765 [W]
EnergyBalance : 0.43501104 [W]
rho max/avg/min : 1.2016456 1.0784606 0.82310713
T   max/avg/min : 428.69539 333.12607 293.6857
P   max/avg/min : 101324.91 101316.16 101307.4
Prg max/avg/min : 101325 101324.04 101319.46
U   max/avg/min : 1.2865638 0.3524542 0
Prg max-min : 5.5392423
 
sngrad(rho) :-0.00011642611 -0.00018748379 -0.0003065635
 
Iteration Number = 748

DILUPBiCG:  Solving for Ux, Initial residual = 5.9101207e-06, Final residual = 8.1488601e-10, No Iterations 2
DILUPBiCG:  Solving for Uy, Initial residual = 0.014903179, Final residual = 9.1119184e-06, No Iterations 2
DILUPBiCG:  Solving for Uz, Initial residual = 4.7410952e-06, Final residual = 1.136275e-09, No Iterations 2
DILUPBiCG:  Solving for h, Initial residual = 6.581887e-07, Final residual = 4.4176618e-09, No Iterations 3
GAMG:  Solving for p_rgh, Initial residual = 1.0493788e-06, Final residual = 3.0285534e-08, No Iterations 1
time step continuity errors : sum local = 5.1185225e-07, global = -1.6407515e-07, cumulative = 0.0020356076
ExecutionTime = 80.87 s  ClockTime = 81 s
Inflow      : 4.3036159e-05 [kg/s]
Outflow     : 4.3036022e-05 [kg/s]
EnergyInflow  : 12.715558 [W]
EnergyOutflow : 13.15057 [W]
EnergyBalance : 0.4350117 [W]
rho max/avg/min : 1.2016456 1.0784608 0.82310755
T   max/avg/min : 428.69518 333.12601 293.6857
P   max/avg/min : 101324.91 101316.16 101307.4
Prg max/avg/min : 101325 101324.04 101319.46
U   max/avg/min : 1.2865746 0.35245589 0
Prg max-min : 5.5392362
 
sngrad(rho) :-0.000121762 -0.00018722115 -0.00030420225
 
Iteration Number = 749

DILUPBiCG:  Solving for Ux, Initial residual = 5.8630642e-06, Final residual = 7.9320507e-10, No Iterations 2
DILUPBiCG:  Solving for Uy, Initial residual = 0.014543814, Final residual = 1.0809935e-05, No Iterations 2
DILUPBiCG:  Solving for Uz, Initial residual = 4.7046976e-06, Final residual = 1.0718575e-09, No Iterations 2
DILUPBiCG:  Solving for h, Initial residual = 6.5488789e-07, Final residual = 4.3949942e-09, No Iterations 3
GAMG:  Solving for p_rgh, Initial residual = 1.0395045e-06, Final residual = 2.9905023e-08, No Iterations 1
time step continuity errors : sum local = 5.0590383e-07, global = -1.6219614e-07, cumulative = 0.0020354454
ExecutionTime = 80.9 s  ClockTime = 81 s
Inflow      : 4.3035497e-05 [kg/s]
Outflow     : 4.3035362e-05 [kg/s]
EnergyInflow  : 12.715363 [W]
EnergyOutflow : 13.150375 [W]
EnergyBalance : 0.43501224 [W]
rho max/avg/min : 1.2016456 1.078461 0.82310801
T   max/avg/min : 428.69494 333.12595 293.6857
P   max/avg/min : 101324.91 101316.16 101307.4
Prg max/avg/min : 101325 101324.04 101319.46
U   max/avg/min : 1.2865853 0.35245756 0
Prg max-min : 5.5392297
 
sngrad(rho) :-0.00012623585 -0.00018698824 -0.00030177282
 
Iteration Number = 750

DILUPBiCG:  Solving for Ux, Initial residual = 5.836322e-06, Final residual = 8.1193253e-10, No Iterations 2
DILUPBiCG:  Solving for Uy, Initial residual = 0.015272984, Final residual = 2.105653e-07, No Iterations 3
DILUPBiCG:  Solving for Uz, Initial residual = 4.6681062e-06, Final residual = 1.0101314e-09, No Iterations 2
DILUPBiCG:  Solving for h, Initial residual = 6.5294285e-07, Final residual = 4.3557619e-09, No Iterations 3
GAMG:  Solving for G, Initial residual = 0.019118966, Final residual = 0.018919101, No Iterations 1000
GAMG:  Solving for p_rgh, Initial residual = 1.0278094e-06, Final residual = 2.9658037e-08, No Iterations 1
time step continuity errors : sum local = 5.0061538e-07, global = -1.607972e-07, cumulative = 0.0020352846
ExecutionTime = 81.71 s  ClockTime = 82 s
Inflow      : 4.3034838e-05 [kg/s]
Outflow     : 4.3034704e-05 [kg/s]
EnergyInflow  : 12.715168 [W]
EnergyOutflow : 13.15018 [W]
EnergyBalance : 0.43501266 [W]
rho max/avg/min : 1.2016456 1.0784611 0.82310849
T   max/avg/min : 428.69469 333.12589 293.6857
P   max/avg/min : 101324.91 101316.16 101307.4
Prg max/avg/min : 101325 101324.04 101319.46
U   max/avg/min : 1.2865959 0.3524592 0
Prg max-min : 5.5392227
 
sngrad(rho) :-0.00013007106 -0.0001867725 -0.00029933805
 
Iteration Number = 751

DILUPBiCG:  Solving for Ux, Initial residual = 5.7861943e-06, Final residual = 8.5492356e-10, No Iterations 2
DILUPBiCG:  Solving for Uy, Initial residual = 0.015335272, Final residual = 3.0809496e-07, No Iterations 3
DILUPBiCG:  Solving for Uz, Initial residual = 4.6320531e-06, Final residual = 9.5002491e-10, No Iterations 2
DILUPBiCG:  Solving for h, Initial residual = 9.2699315e-07, Final residual = 5.1204236e-09, No Iterations 3
GAMG:  Solving for p_rgh, Initial residual = 1.0723298e-06, Final residual = 2.9175806e-08, No Iterations 1
time step continuity errors : sum local = 4.9279092e-07, global = -1.591138e-07, cumulative = 0.0020351255
ExecutionTime = 81.74 s  ClockTime = 82 s
Inflow      : 4.3034179e-05 [kg/s]
Outflow     : 4.3034046e-05 [kg/s]
EnergyInflow  : 12.714973 [W]
EnergyOutflow : 13.149986 [W]
EnergyBalance : 0.43501316 [W]
rho max/avg/min : 1.2016456 1.0784612 0.82310766
T   max/avg/min : 428.69512 333.12586 293.6857
P   max/avg/min : 101324.91 101316.16 101307.4
Prg max/avg/min : 101325 101324.04 101319.46
U   max/avg/min : 1.2866064 0.35246082 0
Prg max-min : 5.539235
 
sngrad(rho) :4.503133e-05 -0.0001762709 -0.00029692261
 
Iteration Number = 752

DILUPBiCG:  Solving for Ux, Initial residual = 5.7591536e-06, Final residual = 7.7749363e-10, No Iterations 2
DILUPBiCG:  Solving for Uy, Initial residual = 0.014524573, Final residual = 8.1998891e-06, No Iterations 2
DILUPBiCG:  Solving for Uz, Initial residual = 4.5964108e-06, Final residual = 8.9690136e-10, No Iterations 2
DILUPBiCG:  Solving for h, Initial residual = 7.4298626e-07, Final residual = 4.5819587e-09, No Iterations 3
GAMG:  Solving for p_rgh, Initial residual = 1.0097308e-06, Final residual = 2.8586751e-08, No Iterations 1
time step continuity errors : sum local = 4.8392818e-07, global = -1.5802415e-07, cumulative = 0.0020349675
ExecutionTime = 81.77 s  ClockTime = 82 s
Inflow      : 4.3033521e-05 [kg/s]
Outflow     : 4.3033389e-05 [kg/s]
EnergyInflow  : 12.714779 [W]
EnergyOutflow : 13.149792 [W]
EnergyBalance : 0.43501352 [W]
rho max/avg/min : 1.2016456 1.0784613 0.82310745
T   max/avg/min : 428.69523 333.12582 293.6857
P   max/avg/min : 101324.91 101316.16 101307.4
Prg max/avg/min : 101325 101324.04 101319.46
U   max/avg/min : 1.2866168 0.35246243 0
Prg max-min : 5.5392382
 
sngrad(rho) :-3.7435265e-05 -0.0001762895 -0.00029458579
 
Iteration Number = 753

DILUPBiCG:  Solving for Ux, Initial residual = 5.7243672e-06, Final residual = 8.4008033e-10, No Iterations 2
DILUPBiCG:  Solving for Uy, Initial residual = 0.014813853, Final residual = 6.2782706e-06, No Iterations 2
DILUPBiCG:  Solving for Uz, Initial residual = 4.5606486e-06, Final residual = 8.4574183e-10, No Iterations 2
DILUPBiCG:  Solving for h, Initial residual = 6.7745021e-07, Final residual = 4.320715e-09, No Iterations 3
GAMG:  Solving for p_rgh, Initial residual = 1.0021251e-06, Final residual = 2.8064646e-08, No Iterations 1
time step continuity errors : sum local = 4.7488449e-07, global = -1.5667211e-07, cumulative = 0.0020348108
ExecutionTime = 81.8 s  ClockTime = 82 s
Inflow      : 4.3032864e-05 [kg/s]
Outflow     : 4.3032733e-05 [kg/s]
EnergyInflow  : 12.714585 [W]
EnergyOutflow : 13.149599 [W]
EnergyBalance : 0.43501396 [W]
rho max/avg/min : 1.2016456 1.0784614 0.82310743
T   max/avg/min : 428.69524 333.12579 293.6857
P   max/avg/min : 101324.91 101316.16 101307.4
Prg max/avg/min : 101325 101324.04 101319.46
U   max/avg/min : 1.2866271 0.35246401 0
Prg max-min : 5.5392386
 
sngrad(rho) :-6.3059698e-05 -0.00017587941 -0.00029209861
 
Iteration Number = 754

DILUPBiCG:  Solving for Ux, Initial residual = 5.6720158e-06, Final residual = 8.0666285e-10, No Iterations 2
DILUPBiCG:  Solving for Uy, Initial residual = 0.015238067, Final residual = 8.8837184e-06, No Iterations 2
DILUPBiCG:  Solving for Uz, Initial residual = 4.5258812e-06, Final residual = 7.9660428e-10, No Iterations 2
DILUPBiCG:  Solving for h, Initial residual = 6.3202165e-07, Final residual = 4.2077417e-09, No Iterations 3
GAMG:  Solving for p_rgh, Initial residual = 9.9429668e-07, Final residual = 9.9429668e-07, No Iterations 0
time step continuity errors : sum local = 1.6701858e-05, global = -6.4316392e-07, cumulative = 0.0020341677
ExecutionTime = 81.83 s  ClockTime = 82 s
Inflow      : 4.3032615e-05 [kg/s]
Outflow     : 4.3032078e-05 [kg/s]
EnergyInflow  : 12.714511 [W]
EnergyOutflow : 13.149405 [W]
EnergyBalance : 0.4348942 [W]
rho max/avg/min : 1.2016456 1.0784615 0.82310751
T   max/avg/min : 428.6952 333.12576 293.6857
P   max/avg/min : 101324.91 101316.16 101307.4
Prg max/avg/min : 101325 101324.04 101319.46
U   max/avg/min : 1.2866376 0.35246558 0
Prg max-min : 5.5392386
 
sngrad(rho) :-7.6605246e-05 -0.00017546222 -0.00028948563
 

SIMPLE solution converged in 754 iterations

End

