/*---------------------------------------------------------------------------*\
| =========                 |                                                 |
| \\      /  F ield         | OpenFOAM: The Open Source CFD Toolbox           |
|  \\    /   O peration     | Version:  4.0                                   |
|   \\  /    A nd           | Web:      www.OpenFOAM.org                      |
|    \\/     M anipulation  |                                                 |
\*---------------------------------------------------------------------------*/
Build  : 4.0-665f1db4c1f1
Exec   : pupoBuoyantSimpleFoam
Date   : Sep 26 2016
Time   : 22:45:44
Host   : "FAB2000"
PID    : 28247
Case   : /home/pedro/Documents/ThesisProject/OpenFoam/validation1rod/P1-Model
nProcs : 1
sigFpe : Enabling floating point exception trapping (FOAM_SIGFPE).
fileModificationChecking : Monitoring run-time modified files using timeStampMaster
allowSystemOperations : Allowing user-supplied system call operations

// * * * * * * * * * * * * * * * * * * * * * * * * * * * * * * * * * * * * * //
Create time

Create mesh for time = 0


SIMPLE: convergence criteria
    field p_rgh	 tolerance 1e-05
    field Uz	 tolerance 1e-05
    field h	 tolerance 1e-05

Reading thermophysical properties

Selecting thermodynamics package 
{
    type            heRhoThermo;
    mixture         pureMixture;
    transport       sutherland;
    thermo          hConst;
    equationOfState perfectGas;
    specie          specie;
    energy          sensibleEnthalpy;
}


Reading g

Reading hRef
Calculating field g.h

Selecting turbulence model type laminar
No MRF models present

Selecting radiationModel P1
Selecting absorptionEmissionModel constantAbsorptionEmission
Selecting scatterModel none
 
rho max/avg/min : 1.2016452 1.2015414 1.2014377
T   max/avg/min : 293.7 293.7 293.7
P   max/avg/min : 101324.91 101316.16 101307.41
Prg max/avg/min : 101325 101325 101325
U   max/avg/min : 0 0 0
 
sngrad(rho) :-0.00013977519 -0.00013977519 -0.00013977519
 
No finite volume options present


Starting Iteration loop

Iteration Number = 1

DILUPBiCG:  Solving for Ux, Initial residual = 2.3034354e-10, Final residual = 2.3034354e-10, No Iterations 0
DILUPBiCG:  Solving for Uy, Initial residual = 4.8698736e-07, Final residual = 1.3395675e-09, No Iterations 1
DILUPBiCG:  Solving for Uz, Initial residual = 1, Final residual = 2.449798e-05, No Iterations 2
DILUPBiCG:  Solving for h, Initial residual = 1, Final residual = 0.00045985721, No Iterations 1
GAMG:  Solving for G, Initial residual = 1, Final residual = 0.0055979189, No Iterations 1000
GAMG:  Solving for p_rgh, Initial residual = 0.28116562, Final residual = 0.00015153273, No Iterations 4
time step continuity errors : sum local = 7.028022e-06, global = -7.7970338e-07, cumulative = -7.7970338e-07
ExecutionTime = 0.88 s  ClockTime = 1 s
Inflow      : -7.0411287e-08 [kg/s]
Outflow     : -7.1061559e-08 [kg/s]
EnergyInflow  : -0.020803874 [W]
EnergyOutflow : -0.020996004 [W]
EnergyBalance : -0.00019213084 [W]
rho max/avg/min : 1.2016452 1.2010688 1.193069
T   max/avg/min : 295.76012 293.81602 293.7
P   max/avg/min : 101324.91 101316.16 101307.41
Prg max/avg/min : 101325 101325 101324.88
U   max/avg/min : 4.6758449e-06 -2.4953188e-05 -0.00026391865
Prg max-min : 0.12358978
 
sngrad(rho) :1.1156761 0.062889637 -0.00013896885
 
Iteration Number = 2

DILUPBiCG:  Solving for Ux, Initial residual = 0.24671613, Final residual = 4.6087465e-06, No Iterations 2
DILUPBiCG:  Solving for Uy, Initial residual = 3.1020361e-05, Final residual = 5.7931261e-10, No Iterations 2
DILUPBiCG:  Solving for Uz, Initial residual = 0.31688961, Final residual = 1.9797859e-06, No Iterations 2
DILUPBiCG:  Solving for h, Initial residual = 0.25367312, Final residual = 6.8616667e-05, No Iterations 1
GAMG:  Solving for p_rgh, Initial residual = 0.027303024, Final residual = 2.3667811e-05, No Iterations 4
time step continuity errors : sum local = 6.4134955e-06, global = 1.6869015e-07, cumulative = -6.1101323e-07
ExecutionTime = 0.91 s  ClockTime = 1 s
Inflow      : -1.1181456e-07 [kg/s]
Outflow     : -1.1167388e-07 [kg/s]
EnergyInflow  : -0.033036977 [W]
EnergyOutflow : -0.03299541 [W]
EnergyBalance : 4.1567835e-05 [W]
rho max/avg/min : 1.2016452 1.2006215 1.1886276
T   max/avg/min : 296.86578 293.92633 293.7
P   max/avg/min : 101324.91 101316.16 101307.41
Prg max/avg/min : 101325 101324.99 101324.81
U   max/avg/min : 1.4028743e-05 -3.9628337e-05 -0.00026855218
Prg max-min : 0.18892635
 
sngrad(rho) :1.7076688 0.12245413 -0.00013777435
 
Iteration Number = 3

DILUPBiCG:  Solving for Ux, Initial residual = 0.16935902, Final residual = 4.2135601e-06, No Iterations 2
DILUPBiCG:  Solving for Uy, Initial residual = 3.2865579e-05, Final residual = 8.6006577e-10, No Iterations 2
DILUPBiCG:  Solving for Uz, Initial residual = 0.081841974, Final residual = 6.5128451e-07, No Iterations 2
DILUPBiCG:  Solving for h, Initial residual = 0.16351798, Final residual = 4.9935044e-05, No Iterations 1
GAMG:  Solving for p_rgh, Initial residual = 0.011248694, Final residual = 7.0848706e-06, No Iterations 4
time step continuity errors : sum local = 3.467737e-06, global = 3.1946395e-07, cumulative = -2.9154928e-07
ExecutionTime = 0.94 s  ClockTime = 1 s
Inflow      : -9.7698581e-08 [kg/s]
Outflow     : -9.7432148e-08 [kg/s]
EnergyInflow  : -0.028866238 [W]
EnergyOutflow : -0.028787514 [W]
EnergyBalance : 7.8723529e-05 [W]
rho max/avg/min : 1.2016452 1.2001695 1.1852067
T   max/avg/min : 297.72264 294.03809 293.7
P   max/avg/min : 101324.91 101316.16 101307.41
Prg max/avg/min : 101325 101324.99 101324.76
U   max/avg/min : 2.663592e-05 -3.3001467e-05 -0.000227321
Prg max-min : 0.2392872
 
sngrad(rho) :0.45617508 0.063274401 -0.00013651659
 
Iteration Number = 4

DILUPBiCG:  Solving for Ux, Initial residual = 0.17102069, Final residual = 4.0422579e-06, No Iterations 2
DILUPBiCG:  Solving for Uy, Initial residual = 2.977748e-05, Final residual = 5.968189e-10, No Iterations 2
DILUPBiCG:  Solving for Uz, Initial residual = 0.12144152, Final residual = 8.2521397e-07, No Iterations 2
DILUPBiCG:  Solving for h, Initial residual = 0.11986814, Final residual = 4.585129e-05, No Iterations 1
GAMG:  Solving for p_rgh, Initial residual = 0.0069901788, Final residual = 3.1454013e-06, No Iterations 3
time step continuity errors : sum local = 2.2162725e-06, global = -6.9170964e-07, cumulative = -9.8325892e-07
ExecutionTime = 0.97 s  ClockTime = 1 s
Inflow      : -8.41581e-08 [kg/s]
Outflow     : -8.4734985e-08 [kg/s]
EnergyInflow  : -0.024865537 [W]
EnergyOutflow : -0.025035977 [W]
EnergyBalance : -0.00017043938 [W]
rho max/avg/min : 1.2016452 1.1997104 1.1822927
T   max/avg/min : 298.45625 294.15186 293.70001
P   max/avg/min : 101324.91 101316.16 101307.41
Prg max/avg/min : 101325 101324.99 101324.72
U   max/avg/min : 4.280421e-05 -2.4526293e-05 -0.00020091441
Prg max-min : 0.28185911
 
sngrad(rho) :0.38840754 0.062889338 -0.00013519326
 
Iteration Number = 5

DILUPBiCG:  Solving for Ux, Initial residual = 0.088175614, Final residual = 2.0446669e-06, No Iterations 2
DILUPBiCG:  Solving for Uy, Initial residual = 2.2960339e-05, Final residual = 5.3536516e-10, No Iterations 2
DILUPBiCG:  Solving for Uz, Initial residual = 0.084211103, Final residual = 2.212856e-07, No Iterations 2
DILUPBiCG:  Solving for h, Initial residual = 0.095413214, Final residual = 4.6233242e-05, No Iterations 1
GAMG:  Solving for p_rgh, Initial residual = 0.0051805613, Final residual = 2.9676575e-06, No Iterations 3
time step continuity errors : sum local = 2.7021254e-06, global = 7.6611512e-07, cumulative = -2.171438e-07
ExecutionTime = 1 s  ClockTime = 1 s
Inflow      : -7.4712429e-08 [kg/s]
Outflow     : -7.407349e-08 [kg/s]
EnergyInflow  : -0.022074699 [W]
EnergyOutflow : -0.021885896 [W]
EnergyBalance : 0.00018880234 [W]
rho max/avg/min : 1.2016452 1.1992443 1.1796957
T   max/avg/min : 299.11313 294.26763 293.70001
P   max/avg/min : 101324.91 101316.16 101307.41
Prg max/avg/min : 101325 101324.98 101324.68
U   max/avg/min : 6.3095157e-05 -1.5357201e-05 -0.00017795309
Prg max-min : 0.31989424
 
sngrad(rho) :0.34613512 0.063412821 -0.00013380149
 
Iteration Number = 6

DILUPBiCG:  Solving for Ux, Initial residual = 0.10554001, Final residual = 1.9602582e-06, No Iterations 2
DILUPBiCG:  Solving for Uy, Initial residual = 2.01398e-05, Final residual = 3.7022662e-10, No Iterations 2
DILUPBiCG:  Solving for Uz, Initial residual = 0.10977918, Final residual = 2.5241308e-07, No Iterations 2
DILUPBiCG:  Solving for h, Initial residual = 0.079707464, Final residual = 4.8191776e-05, No Iterations 1
GAMG:  Solving for p_rgh, Initial residual = 0.0042400627, Final residual = 2.8823831e-06, No Iterations 3
time step continuity errors : sum local = 3.2326803e-06, global = 9.616052e-07, cumulative = 7.444614e-07
ExecutionTime = 1.03 s  ClockTime = 1 s
Inflow      : -6.5774793e-08 [kg/s]
Outflow     : -6.4972815e-08 [kg/s]
EnergyInflow  : -0.019433965 [W]
EnergyOutflow : -0.019196971 [W]
EnergyBalance : 0.00023699421 [W]
rho max/avg/min : 1.2016452 1.1987714 1.1773211
T   max/avg/min : 299.71628 294.38529 293.70001
P   max/avg/min : 101324.91 101316.16 101307.41
Prg max/avg/min : 101325 101324.98 101324.65
U   max/avg/min : 8.6251328e-05 -4.0581412e-06 -0.00015838888
Prg max-min : 0.35464813
 
sngrad(rho) :0.31647204 0.063915675 -0.00013251918
 
Iteration Number = 7

DILUPBiCG:  Solving for Ux, Initial residual = 0.089463145, Final residual = 1.1333726e-06, No Iterations 2
DILUPBiCG:  Solving for Uy, Initial residual = 1.8700799e-05, Final residual = 3.5892887e-10, No Iterations 2
DILUPBiCG:  Solving for Uz, Initial residual = 0.11817724, Final residual = 1.8091466e-07, No Iterations 2
DILUPBiCG:  Solving for h, Initial residual = 0.068715183, Final residual = 5.1420963e-05, No Iterations 1
GAMG:  Solving for p_rgh, Initial residual = 0.0037121003, Final residual = 1.168373e-06, No Iterations 4
time step continuity errors : sum local = 1.572111e-06, global = 2.2102383e-07, cumulative = 9.6548523e-07
ExecutionTime = 1.06 s  ClockTime = 1 s
Inflow      : -5.7386463e-08 [kg/s]
Outflow     : -5.7202129e-08 [kg/s]
EnergyInflow  : -0.01695553 [W]
EnergyOutflow : -0.016900994 [W]
EnergyBalance : 5.4536625e-05 [W]
rho max/avg/min : 1.2016452 1.1982922 1.1751141
T   max/avg/min : 300.27914 294.50473 293.70001
P   max/avg/min : 101324.91 101316.16 101307.41
Prg max/avg/min : 101325 101324.98 101324.61
U   max/avg/min : 0.00011431808 9.9948009e-06 -0.00014165169
Prg max-min : 0.3869587
 
sngrad(rho) :0.29423814 0.064709286 -0.00013256202
 
Iteration Number = 8

DILUPBiCG:  Solving for Ux, Initial residual = 0.11068786, Final residual = 1.3059766e-06, No Iterations 2
DILUPBiCG:  Solving for Uy, Initial residual = 1.7470796e-05, Final residual = 3.2984991e-10, No Iterations 2
DILUPBiCG:  Solving for Uz, Initial residual = 0.12792129, Final residual = 1.6969282e-07, No Iterations 2
DILUPBiCG:  Solving for h, Initial residual = 0.060619409, Final residual = 5.5343424e-05, No Iterations 1
GAMG:  Solving for p_rgh, Initial residual = 0.0034099001, Final residual = 1.1345601e-06, No Iterations 4
time step continuity errors : sum local = 1.7687113e-06, global = 4.229717e-08, cumulative = 1.0077824e-06
ExecutionTime = 1.1 s  ClockTime = 1 s
Inflow      : -5.0634785e-08 [kg/s]
Outflow     : -5.0599509e-08 [kg/s]
EnergyInflow  : -0.014960665 [W]
EnergyOutflow : -0.014950118 [W]
EnergyBalance : 1.0547251e-05 [W]
rho max/avg/min : 1.2016452 1.1978072 1.1730392
T   max/avg/min : 300.81027 294.62582 293.70001
P   max/avg/min : 101324.91 101316.16 101307.41
Prg max/avg/min : 101325 101324.97 101324.58
U   max/avg/min : 0.00014588451 2.7440862e-05 -0.00012736795
Prg max-min : 0.41732799
 
sngrad(rho) :0.27696444 0.065397999 -0.00013268226
 
Iteration Number = 9

DILUPBiCG:  Solving for Ux, Initial residual = 0.086065072, Final residual = 8.6162473e-07, No Iterations 2
DILUPBiCG:  Solving for Uy, Initial residual = 1.7191008e-05, Final residual = 3.1494804e-10, No Iterations 2
DILUPBiCG:  Solving for Uz, Initial residual = 0.13246393, Final residual = 0.00010829887, No Iterations 1
DILUPBiCG:  Solving for h, Initial residual = 0.05434811, Final residual = 5.0432531e-06, No Iterations 2
GAMG:  Solving for p_rgh, Initial residual = 0.0032349021, Final residual = 7.1663136e-07, No Iterations 4
time step continuity errors : sum local = 1.2757973e-06, global = 9.3846382e-08, cumulative = 1.1016288e-06
ExecutionTime = 1.14 s  ClockTime = 1 s
Inflow      : -4.4988336e-08 [kg/s]
Outflow     : -4.4910068e-08 [kg/s]
EnergyInflow  : -0.013292353 [W]
EnergyOutflow : -0.013269025 [W]
EnergyBalance : 2.3327795e-05 [W]
rho max/avg/min : 1.2016452 1.1973161 1.1710731
T   max/avg/min : 301.31529 294.7486 293.70001
P   max/avg/min : 101324.91 101316.16 101307.41
Prg max/avg/min : 101325 101324.97 101324.55
U   max/avg/min : 0.00018317478 4.9045758e-05 -0.00011761784
Prg max-min : 0.44610355
 
sngrad(rho) :0.26268261 0.066022058 -0.00013240944
 
Iteration Number = 10

DILUPBiCG:  Solving for Ux, Initial residual = 0.068467568, Final residual = 4.5120986e-07, No Iterations 2
DILUPBiCG:  Solving for Uy, Initial residual = 1.7836159e-05, Final residual = 3.3231708e-10, No Iterations 2
DILUPBiCG:  Solving for Uz, Initial residual = 0.13642877, Final residual = 7.5486434e-05, No Iterations 1
DILUPBiCG:  Solving for h, Initial residual = 0.049388541, Final residual = 5.3037173e-06, No Iterations 2
GAMG:  Solving for G, Initial residual = 0.49236962, Final residual = 0.35240141, No Iterations 1000
GAMG:  Solving for p_rgh, Initial residual = 0.003152, Final residual = 1.0263792e-06, No Iterations 4
time step continuity errors : sum local = 2.060618e-06, global = 5.065486e-07, cumulative = 1.6081774e-06
ExecutionTime = 1.96 s  ClockTime = 2 s
Inflow      : -4.042664e-08 [kg/s]
Outflow     : -4.0004179e-08 [kg/s]
EnergyInflow  : -0.011944544 [W]
EnergyOutflow : -0.011819405 [W]
EnergyBalance : 0.00012513898 [W]
rho max/avg/min : 1.2016452 1.1968199 1.1691974
T   max/avg/min : 301.79867 294.87285 293.70002
P   max/avg/min : 101324.91 101316.16 101307.41
Prg max/avg/min : 101325 101324.96 101324.53
U   max/avg/min : 0.00022610899 7.5763962e-05 -0.00010990958
Prg max-min : 0.47355364
 
sngrad(rho) :0.250777 0.066591035 -0.00013140628
 
Iteration Number = 11

DILUPBiCG:  Solving for Ux, Initial residual = 0.074783064, Final residual = 5.2990812e-07, No Iterations 2
DILUPBiCG:  Solving for Uy, Initial residual = 1.9061906e-05, Final residual = 2.9365489e-10, No Iterations 2
DILUPBiCG:  Solving for Uz, Initial residual = 0.14001669, Final residual = 5.750568e-05, No Iterations 1
DILUPBiCG:  Solving for h, Initial residual = 0.055206905, Final residual = 5.4501816e-06, No Iterations 2
GAMG:  Solving for p_rgh, Initial residual = 0.005328149, Final residual = 1.4391234e-06, No Iterations 4
time step continuity errors : sum local = 3.2175854e-06, global = 8.6505556e-07, cumulative = 2.4732329e-06
ExecutionTime = 1.99 s  ClockTime = 2 s
Inflow      : -3.6489717e-08 [kg/s]
Outflow     : -3.5768261e-08 [kg/s]
EnergyInflow  : -0.010781332 [W]
EnergyOutflow : -0.010567685 [W]
EnergyBalance : 0.00021364688 [W]
rho max/avg/min : 1.2016452 1.1964566 1.16982
T   max/avg/min : 301.63806 294.9632 293.70002
P   max/avg/min : 101324.91 101316.16 101307.41
Prg max/avg/min : 101325 101324.96 101324.54
U   max/avg/min : 0.00027653593 0.00010842939 -0.00010599136
Prg max-min : 0.46442283
 
sngrad(rho) :0.18714233 0.048755157 -0.083139284
 
Iteration Number = 12

DILUPBiCG:  Solving for Ux, Initial residual = 0.073949974, Final residual = 5.2934463e-07, No Iterations 2
DILUPBiCG:  Solving for Uy, Initial residual = 2.4008947e-05, Final residual = 3.5287037e-10, No Iterations 2
DILUPBiCG:  Solving for Uz, Initial residual = 0.1389614, Final residual = 4.5729834e-05, No Iterations 1
DILUPBiCG:  Solving for h, Initial residual = 0.031771679, Final residual = 4.9901127e-06, No Iterations 2
GAMG:  Solving for p_rgh, Initial residual = 0.0039470781, Final residual = 1.8351453e-06, No Iterations 4
time step continuity errors : sum local = 4.414599e-06, global = 1.3403324e-06, cumulative = 3.8135653e-06
ExecutionTime = 2.03 s  ClockTime = 2 s
Inflow      : -3.3230604e-08 [kg/s]
Outflow     : -3.2112767e-08 [kg/s]
EnergyInflow  : -0.0098183873 [W]
EnergyOutflow : -0.0094873973 [W]
EnergyBalance : 0.00033098998 [W]
rho max/avg/min : 1.2016451 1.1960848 1.1694239
T   max/avg/min : 301.74023 295.05594 293.70003
P   max/avg/min : 101324.91 101316.16 101307.41
Prg max/avg/min : 101325 101324.96 101324.53
U   max/avg/min : 0.00033622693 0.00014802611 -0.00010538905
Prg max-min : 0.47020248
 
sngrad(rho) :0.16323465 0.049952109 -0.00012510103
 
Iteration Number = 13

DILUPBiCG:  Solving for Ux, Initial residual = 0.074424522, Final residual = 5.6208579e-07, No Iterations 2
DILUPBiCG:  Solving for Uy, Initial residual = 3.0361779e-05, Final residual = 3.4502445e-10, No Iterations 2
DILUPBiCG:  Solving for Uz, Initial residual = 0.13916094, Final residual = 4.6556991e-05, No Iterations 1
DILUPBiCG:  Solving for h, Initial residual = 0.028777089, Final residual = 4.7484218e-06, No Iterations 2
GAMG:  Solving for p_rgh, Initial residual = 0.0037567863, Final residual = 2.0863327e-06, No Iterations 4
time step continuity errors : sum local = 5.3848908e-06, global = 1.6722884e-06, cumulative = 5.4858537e-06
ExecutionTime = 2.06 s  ClockTime = 2 s
Inflow      : -3.0368312e-08 [kg/s]
Outflow     : -2.8973625e-08 [kg/s]
EnergyInflow  : -0.0089726884 [W]
EnergyOutflow : -0.0085595845 [W]
EnergyBalance : 0.00041310392 [W]
rho max/avg/min : 1.2016451 1.1957104 1.1687717
T   max/avg/min : 301.90862 295.14945 293.70004
P   max/avg/min : 101324.91 101316.16 101307.41
Prg max/avg/min : 101325 101324.96 101324.52
U   max/avg/min : 0.00040764439 0.0001956063 -0.00010854046
Prg max-min : 0.47972538
 
sngrad(rho) :0.14758968 0.050336387 -0.00011817341
 
Iteration Number = 14

DILUPBiCG:  Solving for Ux, Initial residual = 0.073564761, Final residual = 5.7505242e-07, No Iterations 2
DILUPBiCG:  Solving for Uy, Initial residual = 3.9831691e-05, Final residual = 3.230199e-10, No Iterations 2
DILUPBiCG:  Solving for Uz, Initial residual = 0.14092411, Final residual = 6.3459615e-05, No Iterations 1
DILUPBiCG:  Solving for h, Initial residual = 0.027613261, Final residual = 5.6302475e-06, No Iterations 2
GAMG:  Solving for p_rgh, Initial residual = 0.0037994948, Final residual = 2.3916649e-06, No Iterations 4
time step continuity errors : sum local = 6.6062021e-06, global = 2.2101142e-06, cumulative = 7.6959679e-06
ExecutionTime = 2.09 s  ClockTime = 2 s
Inflow      : -2.8222221e-08 [kg/s]
Outflow     : -2.6378987e-08 [kg/s]
EnergyInflow  : -0.0083385994 [W]
EnergyOutflow : -0.0077925337 [W]
EnergyBalance : 0.00054606569 [W]
rho max/avg/min : 1.201645 1.1953344 1.168018
T   max/avg/min : 302.1035 295.24349 293.70006
P   max/avg/min : 101324.91 101316.16 101307.41
Prg max/avg/min : 101325 101324.95 101324.51
U   max/avg/min : 0.00049279076 0.00025223567 -0.00011695454
Prg max-min : 0.49072536
 
sngrad(rho) :0.13725004 0.050459297 -0.00010721157
 
Iteration Number = 15

DILUPBiCG:  Solving for Ux, Initial residual = 0.072385632, Final residual = 5.8951332e-07, No Iterations 2
DILUPBiCG:  Solving for Uy, Initial residual = 4.6239683e-05, Final residual = 3.1749449e-10, No Iterations 2
DILUPBiCG:  Solving for Uz, Initial residual = 0.14278145, Final residual = 8.3131565e-05, No Iterations 1
DILUPBiCG:  Solving for h, Initial residual = 0.026536648, Final residual = 7.0100161e-06, No Iterations 2
GAMG:  Solving for p_rgh, Initial residual = 0.0039273409, Final residual = 2.6139565e-06, No Iterations 4
time step continuity errors : sum local = 7.6834665e-06, global = 2.5320121e-06, cumulative = 1.022798e-05
ExecutionTime = 2.12 s  ClockTime = 2 s
Inflow      : -2.6373591e-08 [kg/s]
Outflow     : -2.4261894e-08 [kg/s]
EnergyInflow  : -0.0077923992 [W]
EnergyOutflow : -0.0071664232 [W]
EnergyBalance : 0.00062597602 [W]
rho max/avg/min : 1.2016449 1.1949569 1.1672154
T   max/avg/min : 302.31135 295.33801 293.70009
P   max/avg/min : 101324.91 101316.16 101307.41
Prg max/avg/min : 101325 101324.95 101324.5
U   max/avg/min : 0.00059381602 0.00031908131 -0.00013756597
Prg max-min : 0.50243274
 
sngrad(rho) :0.12976729 0.050710363 -9.0718837e-05
 
Iteration Number = 16

DILUPBiCG:  Solving for Ux, Initial residual = 0.069582265, Final residual = 5.8845496e-07, No Iterations 2
DILUPBiCG:  Solving for Uy, Initial residual = 6.4476728e-05, Final residual = 3.6761883e-10, No Iterations 2
DILUPBiCG:  Solving for Uz, Initial residual = 0.14391161, Final residual = 0.00010266754, No Iterations 1
DILUPBiCG:  Solving for h, Initial residual = 0.025569467, Final residual = 8.5916546e-06, No Iterations 2
GAMG:  Solving for p_rgh, Initial residual = 0.0041355478, Final residual = 2.9240288e-06, No Iterations 4
time step continuity errors : sum local = 9.137761e-06, global = 3.1672203e-06, cumulative = 1.33952e-05
ExecutionTime = 2.15 s  ClockTime = 2 s
Inflow      : -2.5280483e-08 [kg/s]
Outflow     : -2.2639023e-08 [kg/s]
EnergyInflow  : -0.0074694272 [W]
EnergyOutflow : -0.0066861281 [W]
EnergyBalance : 0.00078329907 [W]
rho max/avg/min : 1.2016447 1.194578 1.1663879
T   max/avg/min : 302.52599 295.43296 293.70013
P   max/avg/min : 101324.91 101316.16 101307.41
Prg max/avg/min : 101325 101324.95 101324.49
U   max/avg/min : 0.00071326064 0.00039723619 -0.00016873403
Prg max-min : 0.51449248
 
sngrad(rho) :0.12437448 0.050965173 -6.6957664e-05
 
Iteration Number = 17

DILUPBiCG:  Solving for Ux, Initial residual = 0.067910913, Final residual = 6.0288835e-07, No Iterations 2
DILUPBiCG:  Solving for Uy, Initial residual = 8.4849381e-05, Final residual = 5.1290479e-10, No Iterations 2
DILUPBiCG:  Solving for Uz, Initial residual = 0.14316772, Final residual = 0.00012197991, No Iterations 1
DILUPBiCG:  Solving for h, Initial residual = 0.02467198, Final residual = 1.0527903e-05, No Iterations 2
GAMG:  Solving for p_rgh, Initial residual = 0.0043977046, Final residual = 3.1823519e-06, No Iterations 4
time step continuity errors : sum local = 1.0545484e-05, global = 3.5540666e-06, cumulative = 1.6949267e-05
ExecutionTime = 2.19 s  ClockTime = 2 s
Inflow      : -2.4510684e-08 [kg/s]
Outflow     : -2.1546594e-08 [kg/s]
EnergyInflow  : -0.0072419806 [W]
EnergyOutflow : -0.0063622841 [W]
EnergyBalance : 0.00087969653 [W]
rho max/avg/min : 1.2016444 1.1941978 1.165548
T   max/avg/min : 302.74416 295.52834 293.70019
P   max/avg/min : 101324.91 101316.16 101307.41
Prg max/avg/min : 101325 101324.95 101324.47
U   max/avg/min : 0.00085522437 0.000487863 -0.00021170197
Prg max-min : 0.52671865
 
sngrad(rho) :0.12053315 0.051233697 -3.3917258e-05
 
Iteration Number = 18

DILUPBiCG:  Solving for Ux, Initial residual = 0.065109882, Final residual = 6.0345702e-07, No Iterations 2
DILUPBiCG:  Solving for Uy, Initial residual = 0.00011049068, Final residual = 7.5589724e-10, No Iterations 2
DILUPBiCG:  Solving for Uz, Initial residual = 0.14152123, Final residual = 0.00014000746, No Iterations 1
DILUPBiCG:  Solving for h, Initial residual = 0.023840091, Final residual = 1.4057188e-05, No Iterations 2
GAMG:  Solving for p_rgh, Initial residual = 0.0046992582, Final residual = 3.5085469e-06, No Iterations 4
time step continuity errors : sum local = 1.2284566e-05, global = 4.2316158e-06, cumulative = 2.1180883e-05
ExecutionTime = 2.22 s  ClockTime = 2 s
Inflow      : -2.4588808e-08 [kg/s]
Outflow     : -2.1059643e-08 [kg/s]
EnergyInflow  : -0.0072650632 [W]
EnergyOutflow : -0.0062169754 [W]
EnergyBalance : 0.0010480879 [W]
rho max/avg/min : 1.2016441 1.1938162 1.1647032
T   max/avg/min : 302.96396 295.62413 293.70028
P   max/avg/min : 101324.91 101316.16 101307.41
Prg max/avg/min : 101325 101324.94 101324.46
U   max/avg/min : 0.0010220018 0.00059200479 -0.00027817595
Prg max-min : 0.53899925
 
sngrad(rho) :0.11784326 0.051522689 1.0543737e-05
 
Iteration Number = 19

DILUPBiCG:  Solving for Ux, Initial residual = 0.06336618, Final residual = 6.1648105e-07, No Iterations 2
DILUPBiCG:  Solving for Uy, Initial residual = 0.00013941566, Final residual = 1.1462376e-09, No Iterations 2
DILUPBiCG:  Solving for Uz, Initial residual = 0.13805134, Final residual = 5.3404636e-07, No Iterations 2
DILUPBiCG:  Solving for h, Initial residual = 0.023077232, Final residual = 1.975503e-05, No Iterations 2
GAMG:  Solving for p_rgh, Initial residual = 0.0050171935, Final residual = 3.795168e-06, No Iterations 4
time step continuity errors : sum local = 1.4011166e-05, global = 4.657974e-06, cumulative = 2.5838857e-05
ExecutionTime = 2.25 s  ClockTime = 2 s
Inflow      : -2.513803e-08 [kg/s]
Outflow     : -2.1253282e-08 [kg/s]
EnergyInflow  : -0.0074273377 [W]
EnergyOutflow : -0.0062722853 [W]
EnergyBalance : 0.0011550524 [W]
rho max/avg/min : 1.2016436 1.1934335 1.163858
T   max/avg/min : 303.18424 295.7203 293.70038
P   max/avg/min : 101324.91 101316.16 101307.41
Prg max/avg/min : 101325 101324.94 101324.45
U   max/avg/min : 0.0012178284 0.00071073222 -0.00036324473
Prg max-min : 0.55126929
 
sngrad(rho) :0.1159211 0.051839108 6.8741533e-05
 
Iteration Number = 20

DILUPBiCG:  Solving for Ux, Initial residual = 0.06086509, Final residual = 6.241058e-07, No Iterations 2
DILUPBiCG:  Solving for Uy, Initial residual = 0.00016946523, Final residual = 1.3723067e-09, No Iterations 2
DILUPBiCG:  Solving for Uz, Initial residual = 0.13321271, Final residual = 5.7685197e-07, No Iterations 2
DILUPBiCG:  Solving for h, Initial residual = 0.022362201, Final residual = 1.0673168e-05, No Iterations 3
GAMG:  Solving for G, Initial residual = 0.24591912, Final residual = 0.23024418, No Iterations 1000
GAMG:  Solving for p_rgh, Initial residual = 0.0053462909, Final residual = 4.1946315e-06, No Iterations 4
time step continuity errors : sum local = 1.6306365e-05, global = 5.2645408e-06, cumulative = 3.1103397e-05
ExecutionTime = 3.08 s  ClockTime = 3 s
Inflow      : -2.6549468e-08 [kg/s]
Outflow     : -2.2158844e-08 [kg/s]
EnergyInflow  : -0.0078443642 [W]
EnergyOutflow : -0.0065373289 [W]
EnergyBalance : 0.0013070354 [W]
rho max/avg/min : 1.2016427 1.1930491 1.1630151
T   max/avg/min : 303.40426 295.81697 293.70055
P   max/avg/min : 101324.91 101316.16 101307.41
Prg max/avg/min : 101325 101324.94 101324.44
U   max/avg/min : 0.0014468957 0.00084502298 -0.00046971905
Prg max-min : 0.56346209
 
sngrad(rho) :0.11449187 0.052225761 0.0001624745
 
Iteration Number = 21

DILUPBiCG:  Solving for Ux, Initial residual = 0.059222375, Final residual = 6.4116385e-07, No Iterations 2
DILUPBiCG:  Solving for Uy, Initial residual = 0.00022955443, Final residual = 1.730187e-09, No Iterations 2
DILUPBiCG:  Solving for Uz, Initial residual = 0.12735905, Final residual = 6.1441185e-07, No Iterations 2
DILUPBiCG:  Solving for h, Initial residual = 0.022490189, Final residual = 1.3853845e-05, No Iterations 3
GAMG:  Solving for p_rgh, Initial residual = 0.0058908136, Final residual = 4.419765e-06, No Iterations 4
time step continuity errors : sum local = 1.8065626e-05, global = 5.6215389e-06, cumulative = 3.6724936e-05
ExecutionTime = 3.11 s  ClockTime = 3 s
Inflow      : -2.8255595e-08 [kg/s]
Outflow     : -2.3567235e-08 [kg/s]
EnergyInflow  : -0.0083484602 [W]
EnergyOutflow : -0.0069501485 [W]
EnergyBalance : 0.0013983117 [W]
rho max/avg/min : 1.2016415 1.1926962 1.162751
T   max/avg/min : 303.4734 295.90557 293.70077
P   max/avg/min : 101324.91 101316.16 101307.41
Prg max/avg/min : 101325 101324.93 101324.43
U   max/avg/min : 0.0017131106 0.00099591672 -0.00059822142
Prg max-min : 0.56715587
 
sngrad(rho) :0.10900303 0.04836895 0.00028163839
 
Iteration Number = 22

DILUPBiCG:  Solving for Ux, Initial residual = 0.056981314, Final residual = 6.5568428e-07, No Iterations 2
DILUPBiCG:  Solving for Uy, Initial residual = 0.00026736418, Final residual = 2.0858726e-09, No Iterations 2
DILUPBiCG:  Solving for Uz, Initial residual = 0.12053328, Final residual = 6.3392019e-07, No Iterations 2
DILUPBiCG:  Solving for h, Initial residual = 0.018875601, Final residual = 1.6347844e-05, No Iterations 3
GAMG:  Solving for p_rgh, Initial residual = 0.0061567105, Final residual = 4.7381498e-06, No Iterations 4
time step continuity errors : sum local = 2.0241319e-05, global = 6.3889396e-06, cumulative = 4.3113876e-05
ExecutionTime = 3.15 s  ClockTime = 3 s
Inflow      : -3.1129608e-08 [kg/s]
Outflow     : -2.5801236e-08 [kg/s]
EnergyInflow  : -0.0091976224 [W]
EnergyOutflow : -0.0076058917 [W]
EnergyBalance : 0.0015917307 [W]
rho max/avg/min : 1.20164 1.1923412 1.1622355
T   max/avg/min : 303.60834 295.99477 293.70104
P   max/avg/min : 101324.91 101316.16 101307.41
Prg max/avg/min : 101325 101324.93 101324.43
U   max/avg/min : 0.002019763 0.0011639629 -0.000752236
Prg max-min : 0.57449714
 
sngrad(rho) :0.10443993 0.048946634 0.00042766138
 
Iteration Number = 23

DILUPBiCG:  Solving for Ux, Initial residual = 0.055890406, Final residual = 6.9290754e-07, No Iterations 2
DILUPBiCG:  Solving for Uy, Initial residual = 0.00030760614, Final residual = 2.9319644e-09, No Iterations 2
DILUPBiCG:  Solving for Uz, Initial residual = 0.11341402, Final residual = 6.5262988e-07, No Iterations 2
DILUPBiCG:  Solving for h, Initial residual = 0.018433088, Final residual = 6.5670855e-06, No Iterations 4
GAMG:  Solving for p_rgh, Initial residual = 0.0063105109, Final residual = 4.7979095e-06, No Iterations 4
time step continuity errors : sum local = 2.1385236e-05, global = 6.4763291e-06, cumulative = 4.9590205e-05
ExecutionTime = 3.18 s  ClockTime = 3 s
Inflow      : -3.3905811e-08 [kg/s]
Outflow     : -2.8504557e-08 [kg/s]
EnergyInflow  : -0.010017886 [W]
EnergyOutflow : -0.0083989993 [W]
EnergyBalance : 0.0016188863 [W]
rho max/avg/min : 1.2016381 1.1919855 1.1616522
T   max/avg/min : 303.76116 296.08423 293.70136
P   max/avg/min : 101324.91 101316.16 101307.41
Prg max/avg/min : 101325 101324.93 101324.42
U   max/avg/min : 0.0023722333 0.0013501318 -0.00093043463
Prg max-min : 0.58280451
 
sngrad(rho) :0.10067333 0.049493563 0.00060007071
 
Iteration Number = 24

DILUPBiCG:  Solving for Ux, Initial residual = 0.054327558, Final residual = 7.265771e-07, No Iterations 2
DILUPBiCG:  Solving for Uy, Initial residual = 0.00038154358, Final residual = 3.9795378e-09, No Iterations 2
DILUPBiCG:  Solving for Uz, Initial residual = 0.10620489, Final residual = 6.5134923e-07, No Iterations 2
DILUPBiCG:  Solving for h, Initial residual = 0.018009156, Final residual = 6.0959761e-06, No Iterations 4
GAMG:  Solving for p_rgh, Initial residual = 0.0067646075, Final residual = 5.0437317e-06, No Iterations 4
time step continuity errors : sum local = 2.3445461e-05, global = 7.2684173e-06, cumulative = 5.6858622e-05
ExecutionTime = 3.22 s  ClockTime = 3 s
Inflow      : -3.7741377e-08 [kg/s]
Outflow     : -3.1679521e-08 [kg/s]
EnergyInflow  : -0.01115115 [W]
EnergyOutflow : -0.0093297899 [W]
EnergyBalance : 0.0018213604 [W]
rho max/avg/min : 1.2016355 1.1916294 1.1610397
T   max/avg/min : 303.92187 296.17385 293.70173
P   max/avg/min : 101324.91 101316.16 101307.41
Prg max/avg/min : 101325 101324.93 101324.41
U   max/avg/min : 0.0027732874 0.0015547746 -0.0011360674
Prg max-min : 0.59150262
 
sngrad(rho) :0.097525655 0.049982169 0.00080570767
 
Iteration Number = 25

DILUPBiCG:  Solving for Ux, Initial residual = 0.053761964, Final residual = 7.8895322e-07, No Iterations 2
DILUPBiCG:  Solving for Uy, Initial residual = 0.00043969506, Final residual = 4.7456845e-09, No Iterations 2
DILUPBiCG:  Solving for Uz, Initial residual = 0.099306845, Final residual = 6.5205456e-07, No Iterations 2
DILUPBiCG:  Solving for h, Initial residual = 0.017602955, Final residual = 9.6999767e-06, No Iterations 4
GAMG:  Solving for p_rgh, Initial residual = 0.006822288, Final residual = 5.047686e-06, No Iterations 4
time step continuity errors : sum local = 2.4425917e-05, global = 7.3384547e-06, cumulative = 6.4197077e-05
ExecutionTime = 3.25 s  ClockTime = 3 s
Inflow      : -4.1734619e-08 [kg/s]
Outflow     : -3.5614352e-08 [kg/s]
EnergyInflow  : -0.012331002 [W]
EnergyOutflow : -0.010482947 [W]
EnergyBalance : 0.0018480547 [W]
rho max/avg/min : 1.2016323 1.1912732 1.1604117
T   max/avg/min : 304.08684 296.26358 293.70217
P   max/avg/min : 101324.91 101316.16 101307.41
Prg max/avg/min : 101325 101324.92 101324.4
U   max/avg/min : 0.0032251446 0.0017784445 -0.0013684934
Prg max-min : 0.60039586
 
sngrad(rho) :0.095010621 0.050635103 0.0010417742
 
Iteration Number = 26

DILUPBiCG:  Solving for Ux, Initial residual = 0.052888089, Final residual = 8.5089711e-07, No Iterations 2
DILUPBiCG:  Solving for Uy, Initial residual = 0.0005329341, Final residual = 6.4707558e-09, No Iterations 2
DILUPBiCG:  Solving for Uz, Initial residual = 0.092737477, Final residual = 6.3929979e-07, No Iterations 2
DILUPBiCG:  Solving for h, Initial residual = 0.017210706, Final residual = 9.4501689e-07, No Iterations 5
GAMG:  Solving for p_rgh, Initial residual = 0.0071412528, Final residual = 5.165963e-06, No Iterations 4
time step continuity errors : sum local = 2.5994874e-05, global = 7.8837218e-06, cumulative = 7.2080799e-05
ExecutionTime = 3.29 s  ClockTime = 3 s
Inflow      : -4.5887821e-08 [kg/s]
Outflow     : -3.9312802e-08 [kg/s]
EnergyInflow  : -0.013558117 [W]
EnergyOutflow : -0.011563619 [W]
EnergyBalance : 0.0019944972 [W]
rho max/avg/min : 1.2016283 1.1909165 1.1597753
T   max/avg/min : 304.25428 296.35349 293.70265
P   max/avg/min : 101324.91 101316.16 101307.41
Prg max/avg/min : 101325 101324.92 101324.39
U   max/avg/min : 0.0037336924 0.0020217322 -0.0016417771
Prg max-min : 0.6096555
 
sngrad(rho) :0.093013204 0.051447354 0.0013044203
 
Iteration Number = 27

DILUPBiCG:  Solving for Ux, Initial residual = 0.052881525, Final residual = 9.315047e-07, No Iterations 2
DILUPBiCG:  Solving for Uy, Initial residual = 0.00064136625, Final residual = 9.2719292e-09, No Iterations 2
DILUPBiCG:  Solving for Uz, Initial residual = 0.086614658, Final residual = 6.1955503e-07, No Iterations 2
DILUPBiCG:  Solving for h, Initial residual = 0.01683335, Final residual = 6.6913797e-06, No Iterations 4
GAMG:  Solving for p_rgh, Initial residual = 0.0075546273, Final residual = 5.2258567e-06, No Iterations 4
time step continuity errors : sum local = 2.7315601e-05, global = 7.9971892e-06, cumulative = 8.0077988e-05
ExecutionTime = 3.32 s  ClockTime = 3 s
Inflow      : -4.9237657e-08 [kg/s]
Outflow     : -4.2568006e-08 [kg/s]
EnergyInflow  : -0.014547866 [W]
EnergyOutflow : -0.012510033 [W]
EnergyBalance : 0.0020378339 [W]
rho max/avg/min : 1.2016233 1.1905595 1.159134
T   max/avg/min : 304.42322 296.44356 293.70319
P   max/avg/min : 101324.91 101316.16 101307.41
Prg max/avg/min : 101325 101324.92 101324.38
U   max/avg/min : 0.0042987005 0.002285181 -0.0019497244
Prg max-min : 0.61899331
 
sngrad(rho) :0.091444327 0.052368358 0.0015974424
 
Iteration Number = 28

DILUPBiCG:  Solving for Ux, Initial residual = 0.052951946, Final residual = 1.0352777e-06, No Iterations 2
DILUPBiCG:  Solving for Uy, Initial residual = 0.00070237525, Final residual = 1.2274182e-08, No Iterations 2
DILUPBiCG:  Solving for Uz, Initial residual = 0.080991135, Final residual = 5.9218938e-07, No Iterations 2
DILUPBiCG:  Solving for h, Initial residual = 0.016473478, Final residual = 6.0618177e-06, No Iterations 4
GAMG:  Solving for p_rgh, Initial residual = 0.0082968011, Final residual = 5.4733069e-06, No Iterations 4
time step continuity errors : sum local = 2.9679975e-05, global = 9.0265418e-06, cumulative = 8.910453e-05
ExecutionTime = 3.35 s  ClockTime = 3 s
Inflow      : -5.2510523e-08 [kg/s]
Outflow     : -4.4982393e-08 [kg/s]
EnergyInflow  : -0.015514875 [W]
EnergyOutflow : -0.013203702 [W]
EnergyBalance : 0.0023111728 [W]
rho max/avg/min : 1.2016173 1.1902024 1.1584905
T   max/avg/min : 304.59299 296.5337 293.70386
P   max/avg/min : 101324.91 101316.16 101307.41
Prg max/avg/min : 101325 101324.92 101324.37
U   max/avg/min : 0.0049184739 0.0025689613 -0.0022882967
Prg max-min : 0.62835585
 
sngrad(rho) :0.090155892 0.053059428 0.0019647716
 
Iteration Number = 29

DILUPBiCG:  Solving for Ux, Initial residual = 0.052650199, Final residual = 1.155211e-06, No Iterations 2
DILUPBiCG:  Solving for Uy, Initial residual = 0.00079199734, Final residual = 1.3771208e-08, No Iterations 2
DILUPBiCG:  Solving for Uz, Initial residual = 0.0758377, Final residual = 5.6097605e-07, No Iterations 2
DILUPBiCG:  Solving for h, Initial residual = 0.016117824, Final residual = 5.453735e-06, No Iterations 4
GAMG:  Solving for p_rgh, Initial residual = 0.0082912938, Final residual = 5.1316017e-06, No Iterations 4
time step continuity errors : sum local = 2.8855423e-05, global = 7.6767586e-06, cumulative = 9.6781288e-05
ExecutionTime = 3.39 s  ClockTime = 3 s
Inflow      : -5.102781e-08 [kg/s]
Outflow     : -4.4625397e-08 [kg/s]
EnergyInflow  : -0.015076789 [W]
EnergyOutflow : -0.013073063 [W]
EnergyBalance : 0.0020037264 [W]
rho max/avg/min : 1.2016143 1.1898454 1.1578463
T   max/avg/min : 304.76314 296.6239 293.70463
P   max/avg/min : 101324.91 101316.16 101307.41
Prg max/avg/min : 101325 101324.91 101324.36
U   max/avg/min : 0.0056051947 0.0028740828 -0.0026602005
Prg max-min : 0.63771969
 
sngrad(rho) :0.089152845 0.054022823 0.0023830775
 
Iteration Number = 30

DILUPBiCG:  Solving for Ux, Initial residual = 0.05293966, Final residual = 1.2683264e-06, No Iterations 2
DILUPBiCG:  Solving for Uy, Initial residual = 0.00090024863, Final residual = 1.8687176e-08, No Iterations 2
DILUPBiCG:  Solving for Uz, Initial residual = 0.071021414, Final residual = 5.172595e-07, No Iterations 2
DILUPBiCG:  Solving for h, Initial residual = 0.015773917, Final residual = 5.01085e-06, No Iterations 4
GAMG:  Solving for G, Initial residual = 0.24524832, Final residual = 0.20801422, No Iterations 1000
GAMG:  Solving for p_rgh, Initial residual = 0.0085196358, Final residual = 5.3540644e-06, No Iterations 4
time step continuity errors : sum local = 3.121253e-05, global = 8.8570019e-06, cumulative = 0.00010563829
ExecutionTime = 4.21 s  ClockTime = 4 s
Inflow      : -4.824415e-08 [kg/s]
Outflow     : -4.0857416e-08 [kg/s]
EnergyInflow  : -0.014254323 [W]
EnergyOutflow : -0.011928338 [W]
EnergyBalance : 0.0023259851 [W]
rho max/avg/min : 1.2016122 1.1894885 1.1572027
T   max/avg/min : 304.93338 296.71411 293.70546
P   max/avg/min : 101324.91 101316.16 101307.41
Prg max/avg/min : 101325 101324.91 101324.35
U   max/avg/min : 0.0063454711 0.0031998504 -0.0030982652
Prg max-min : 0.64707024
 
sngrad(rho) :0.088326342 0.055080112 0.0028357864
 
Iteration Number = 31

DILUPBiCG:  Solving for Ux, Initial residual = 0.052834187, Final residual = 1.3859127e-06, No Iterations 2
DILUPBiCG:  Solving for Uy, Initial residual = 0.0011230899, Final residual = 2.4645815e-08, No Iterations 2
DILUPBiCG:  Solving for Uz, Initial residual = 0.066629007, Final residual = 4.9448558e-07, No Iterations 2
DILUPBiCG:  Solving for h, Initial residual = 0.016129548, Final residual = 4.9493515e-06, No Iterations 4
GAMG:  Solving for p_rgh, Initial residual = 0.0089139843, Final residual = 5.382639e-06, No Iterations 4
time step continuity errors : sum local = 3.2516758e-05, global = 8.5105088e-06, cumulative = 0.0001141488
ExecutionTime = 4.24 s  ClockTime = 4 s
Inflow      : -4.4884108e-08 [kg/s]
Outflow     : -3.7786348e-08 [kg/s]
EnergyInflow  : -0.013261557 [W]
EnergyOutflow : -0.010982542 [W]
EnergyBalance : 0.0022790157 [W]
rho max/avg/min : 1.2016113 1.1891602 1.1570586
T   max/avg/min : 304.97168 296.79693 293.70634
P   max/avg/min : 101324.91 101316.16 101307.41
Prg max/avg/min : 101325 101324.91 101324.35
U   max/avg/min : 0.0071547303 0.0035451217 -0.0035822049
Prg max-min : 0.64910271
 
sngrad(rho) :0.086109347 0.052425919 0.0033154466
 
Iteration Number = 32

DILUPBiCG:  Solving for Ux, Initial residual = 0.052725086, Final residual = 1.4883659e-06, No Iterations 2
DILUPBiCG:  Solving for Uy, Initial residual = 0.0011931579, Final residual = 3.0734976e-08, No Iterations 2
DILUPBiCG:  Solving for Uz, Initial residual = 0.062599352, Final residual = 4.7957847e-07, No Iterations 2
DILUPBiCG:  Solving for h, Initial residual = 0.013535258, Final residual = 6.4160994e-06, No Iterations 4
GAMG:  Solving for p_rgh, Initial residual = 0.010169189, Final residual = 5.9811302e-06, No Iterations 4
time step continuity errors : sum local = 3.7373914e-05, global = 8.4316642e-06, cumulative = 0.00012258046
ExecutionTime = 4.28 s  ClockTime = 4 s
Inflow      : -3.6319095e-08 [kg/s]
Outflow     : -2.9287092e-08 [kg/s]
EnergyInflow  : -0.01073092 [W]
EnergyOutflow : -0.0084237415 [W]
EnergyBalance : 0.0023071782 [W]
rho max/avg/min : 1.2016106 1.1888314 1.1566942
T   max/avg/min : 305.06828 296.87995 293.70767
P   max/avg/min : 101324.91 101316.16 101307.41
Prg max/avg/min : 101325 101324.91 101324.35
U   max/avg/min : 0.0080230061 0.0039120369 -0.0040961224
Prg max-min : 0.65433852
 
sngrad(rho) :0.083906449 0.052958146 0.0040425929
 
Iteration Number = 33

DILUPBiCG:  Solving for Ux, Initial residual = 0.052016915, Final residual = 1.5701352e-06, No Iterations 2
DILUPBiCG:  Solving for Uy, Initial residual = 0.0011935705, Final residual = 3.6216101e-08, No Iterations 2
DILUPBiCG:  Solving for Uz, Initial residual = 0.058858549, Final residual = 4.5625312e-07, No Iterations 2
DILUPBiCG:  Solving for h, Initial residual = 0.013291699, Final residual = 9.15131e-06, No Iterations 4
GAMG:  Solving for p_rgh, Initial residual = 0.0097703482, Final residual = 5.6231383e-06, No Iterations 4
time step continuity errors : sum local = 3.6342528e-05, global = 7.0982872e-06, cumulative = 0.00012967875
ExecutionTime = 4.31 s  ClockTime = 4 s
Inflow      : -1.8612665e-08 [kg/s]
Outflow     : -1.2692698e-08 [kg/s]
EnergyInflow  : -0.0054993389 [W]
EnergyOutflow : -0.0034621531 [W]
EnergyBalance : 0.0020371858 [W]
rho max/avg/min : 1.2016107 1.1885036 1.1562679
T   max/avg/min : 305.18128 296.96276 293.70844
P   max/avg/min : 101324.91 101316.16 101307.41
Prg max/avg/min : 101325 101324.91 101324.34
U   max/avg/min : 0.008946932 0.0043004583 -0.0046357351
Prg max-min : 0.6604753
 
sngrad(rho) :0.086343925 0.053740685 0.0047716099
 
Iteration Number = 34

DILUPBiCG:  Solving for Ux, Initial residual = 0.050836514, Final residual = 1.5638989e-06, No Iterations 2
DILUPBiCG:  Solving for Uy, Initial residual = 0.0013565543, Final residual = 4.5778808e-08, No Iterations 2
DILUPBiCG:  Solving for Uz, Initial residual = 0.055412447, Final residual = 4.4326765e-07, No Iterations 2
DILUPBiCG:  Solving for h, Initial residual = 0.013052519, Final residual = 1.2475723e-05, No Iterations 4
GAMG:  Solving for p_rgh, Initial residual = 0.0097040009, Final residual = 5.6624083e-06, No Iterations 4
time step continuity errors : sum local = 3.7816443e-05, global = 7.9211603e-06, cumulative = 0.00013759991
ExecutionTime = 4.35 s  ClockTime = 4 s
Inflow      : 5.4860112e-09 [kg/s]
Outflow     : 1.2092254e-08 [kg/s]
EnergyInflow  : 0.0016209089 [W]
EnergyOutflow : 0.0039301235 [W]
EnergyBalance : 0.0023092146 [W]
rho max/avg/min : 1.2016107 1.1881772 1.1558132
T   max/avg/min : 305.30185 297.0453 293.70844
P   max/avg/min : 101324.91 101316.16 101307.41
Prg max/avg/min : 101325 101324.9 101324.34
U   max/avg/min : 0.009936872 0.0047101629 -0.0051900848
Prg max-min : 0.66703613
 
sngrad(rho) :0.10343421 0.054555089 0.0054472036
 
Iteration Number = 35

DILUPBiCG:  Solving for Ux, Initial residual = 0.049820867, Final residual = 1.5627812e-06, No Iterations 2
DILUPBiCG:  Solving for Uy, Initial residual = 0.0014718598, Final residual = 5.7176966e-08, No Iterations 2
DILUPBiCG:  Solving for Uz, Initial residual = 0.052263508, Final residual = 4.4004879e-07, No Iterations 2
DILUPBiCG:  Solving for h, Initial residual = 0.012814708, Final residual = 1.1096945e-06, No Iterations 5
GAMG:  Solving for p_rgh, Initial residual = 0.0095909746, Final residual = 5.219473e-06, No Iterations 4
time step continuity errors : sum local = 3.5995352e-05, global = 5.7474568e-06, cumulative = 0.00014334737
ExecutionTime = 4.38 s  ClockTime = 4 s
Inflow      : 4.1185763e-08 [kg/s]
Outflow     : 4.5979138e-08 [kg/s]
EnergyInflow  : 0.012168836 [W]
EnergyOutflow : 0.014023028 [W]
EnergyBalance : 0.0018541915 [W]
rho max/avg/min : 1.2016113 1.1878519 1.1553415
T   max/avg/min : 305.42691 297.12761 293.70829
P   max/avg/min : 101324.91 101316.16 101307.41
Prg max/avg/min : 101325 101324.9 101324.33
U   max/avg/min : 0.01099036 0.0051411089 -0.0057578348
Prg max-min : 0.67384875
 
sngrad(rho) :0.12042177 0.055420124 0.0060684889
 
Iteration Number = 36

DILUPBiCG:  Solving for Ux, Initial residual = 0.048965144, Final residual = 1.6184012e-06, No Iterations 2
DILUPBiCG:  Solving for Uy, Initial residual = 0.0016129524, Final residual = 7.0804951e-08, No Iterations 2
DILUPBiCG:  Solving for Uz, Initial residual = 0.049366131, Final residual = 4.4054615e-07, No Iterations 2
DILUPBiCG:  Solving for h, Initial residual = 0.012580558, Final residual = 1.0710987e-06, No Iterations 5
GAMG:  Solving for p_rgh, Initial residual = 0.0094535807, Final residual = 5.4089768e-06, No Iterations 4
time step continuity errors : sum local = 3.8493488e-05, global = 1.1129595e-05, cumulative = 0.00015447696
ExecutionTime = 4.41 s  ClockTime = 4 s
Inflow      : 6.8529055e-08 [kg/s]
Outflow     : 7.7811131e-08 [kg/s]
EnergyInflow  : 0.020247745 [W]
EnergyOutflow : 0.023519652 [W]
EnergyBalance : 0.0032719061 [W]
rho max/avg/min : 1.2016113 1.1875282 1.1548591
T   max/avg/min : 305.55477 297.20961 293.70831
P   max/avg/min : 101324.91 101316.16 101307.42
Prg max/avg/min : 101325.01 101324.9 101324.32
U   max/avg/min : 0.012096957 0.0055873138 -0.0063440137
Prg max-min : 0.68081958
 
sngrad(rho) :0.13714953 0.056239586 0.0066708979
 
Iteration Number = 37

DILUPBiCG:  Solving for Ux, Initial residual = 0.047991547, Final residual = 1.6146726e-06, No Iterations 2
DILUPBiCG:  Solving for Uy, Initial residual = 0.0020884887, Final residual = 1.0484761e-07, No Iterations 2
DILUPBiCG:  Solving for Uz, Initial residual = 0.046810934, Final residual = 4.4661055e-07, No Iterations 2
DILUPBiCG:  Solving for h, Initial residual = 0.012358687, Final residual = 1.122046e-06, No Iterations 5
GAMG:  Solving for p_rgh, Initial residual = 0.011300655, Final residual = 6.010996e-06, No Iterations 4
time step continuity errors : sum local = 4.4124237e-05, global = 5.285814e-06, cumulative = 0.00015976278
ExecutionTime = 4.45 s  ClockTime = 4 s
Inflow      : 1.1486619e-07 [kg/s]
Outflow     : 1.1927456e-07 [kg/s]
EnergyInflow  : 0.033938617 [W]
EnergyOutflow : 0.035877228 [W]
EnergyBalance : 0.0019386101 [W]
rho max/avg/min : 1.2016116 1.1872058 1.1543693
T   max/avg/min : 305.6845 297.2913 293.70821
P   max/avg/min : 101324.91 101316.16 101307.42
Prg max/avg/min : 101325.01 101324.9 101324.32
U   max/avg/min : 0.013258492 0.0060556494 -0.0069419673
Prg max-min : 0.68781682
 
sngrad(rho) :0.12162979 0.055402669 0.008083224
 
Iteration Number = 38

DILUPBiCG:  Solving for Ux, Initial residual = 0.047666123, Final residual = 1.7103379e-06, No Iterations 2
DILUPBiCG:  Solving for Uy, Initial residual = 0.002144251, Final residual = 1.0563807e-07, No Iterations 2
DILUPBiCG:  Solving for Uz, Initial residual = 0.044259872, Final residual = 4.5140101e-07, No Iterations 2
DILUPBiCG:  Solving for h, Initial residual = 0.012128696, Final residual = 1.2169368e-06, No Iterations 5
GAMG:  Solving for p_rgh, Initial residual = 0.010285052, Final residual = 5.5408031e-06, No Iterations 4
time step continuity errors : sum local = 4.1957119e-05, global = 8.4442506e-06, cumulative = 0.00016820703
ExecutionTime = 4.48 s  ClockTime = 4 s
Inflow      : 1.676139e-07 [kg/s]
Outflow     : 1.746564e-07 [kg/s]
EnergyInflow  : 0.049523571 [W]
EnergyOutflow : 0.052363838 [W]
EnergyBalance : 0.0028402666 [W]
rho max/avg/min : 1.2016117 1.1868852 1.1538745
T   max/avg/min : 305.81544 297.37262 293.7082
P   max/avg/min : 101324.91 101316.16 101307.42
Prg max/avg/min : 101325.01 101324.9 101324.31
U   max/avg/min : 0.014471918 0.0065432708 -0.0075323231
Prg max-min : 0.694937
 
sngrad(rho) :0.1423255 0.055695722 0.0089965523
 
Iteration Number = 39

DILUPBiCG:  Solving for Ux, Initial residual = 0.043849944, Final residual = 1.577241e-06, No Iterations 2
DILUPBiCG:  Solving for Uy, Initial residual = 0.0021162246, Final residual = 1.0264831e-07, No Iterations 2
DILUPBiCG:  Solving for Uz, Initial residual = 0.042053912, Final residual = 4.6198728e-07, No Iterations 2
DILUPBiCG:  Solving for h, Initial residual = 0.011902585, Final residual = 1.3738154e-06, No Iterations 5
GAMG:  Solving for p_rgh, Initial residual = 0.0096124612, Final residual = 5.1435011e-06, No Iterations 4
time step continuity errors : sum local = 4.0143639e-05, global = 4.4975626e-06, cumulative = 0.00017270459
ExecutionTime = 4.51 s  ClockTime = 4 s
Inflow      : 2.4127849e-07 [kg/s]
Outflow     : 2.4502945e-07 [kg/s]
EnergyInflow  : 0.071288672 [W]
EnergyOutflow : 0.073293916 [W]
EnergyBalance : 0.0020052441 [W]
rho max/avg/min : 1.2016112 1.1865664 1.153376
T   max/avg/min : 305.94714 297.45353 293.70832
P   max/avg/min : 101324.91 101316.16 101307.42
Prg max/avg/min : 101325.01 101324.89 101324.3
U   max/avg/min : 0.015736544 0.0070525922 -0.0081099555
Prg max-min : 0.70214762
 
sngrad(rho) :0.15898976 0.05616598 0.0095843018
 
Iteration Number = 40

DILUPBiCG:  Solving for Ux, Initial residual = 0.041527194, Final residual = 1.554387e-06, No Iterations 2
DILUPBiCG:  Solving for Uy, Initial residual = 0.0022085376, Final residual = 2.3837158e-07, No Iterations 2
DILUPBiCG:  Solving for Uz, Initial residual = 0.039942044, Final residual = 4.7385987e-07, No Iterations 2
DILUPBiCG:  Solving for h, Initial residual = 0.011679304, Final residual = 1.5767814e-06, No Iterations 5
GAMG:  Solving for G, Initial residual = 0.24598357, Final residual = 0.19929684, No Iterations 1000
GAMG:  Solving for p_rgh, Initial residual = 0.0090423807, Final residual = 4.9528112e-06, No Iterations 4
time step continuity errors : sum local = 3.9842562e-05, global = 7.5800002e-06, cumulative = 0.00018028459
ExecutionTime = 5.33 s  ClockTime = 5 s
Inflow      : 3.2115373e-07 [kg/s]
Outflow     : 3.2747545e-07 [kg/s]
EnergyInflow  : 0.094888788 [W]
EnergyOutflow : 0.097805994 [W]
EnergyBalance : 0.0029172061 [W]
rho max/avg/min : 1.201611 1.1862495 1.152875
T   max/avg/min : 306.07925 297.53402 293.70837
P   max/avg/min : 101324.91 101316.16 101307.42
Prg max/avg/min : 101325.01 101324.89 101324.3
U   max/avg/min : 0.017050753 0.0075799159 -0.0086777899
Prg max-min : 0.70939641
 
sngrad(rho) :0.17435978 0.056684996 0.010128561
 
Iteration Number = 41

DILUPBiCG:  Solving for Ux, Initial residual = 0.038796297, Final residual = 1.5049936e-06, No Iterations 2
DILUPBiCG:  Solving for Uy, Initial residual = 0.0021668191, Final residual = 1.5446014e-07, No Iterations 2
DILUPBiCG:  Solving for Uz, Initial residual = 0.038064378, Final residual = 4.8066203e-07, No Iterations 2
DILUPBiCG:  Solving for h, Initial residual = 0.011771967, Final residual = 3.0884683e-06, No Iterations 5
GAMG:  Solving for p_rgh, Initial residual = 0.0087953224, Final residual = 4.4216805e-06, No Iterations 4
time step continuity errors : sum local = 3.6607456e-05, global = 4.5870291e-06, cumulative = 0.00018487162
ExecutionTime = 5.36 s  ClockTime = 5 s
Inflow      : 4.1762425e-07 [kg/s]
Outflow     : 4.2144983e-07 [kg/s]
EnergyInflow  : 0.12339218 [W]
EnergyOutflow : 0.12574037 [W]
EnergyBalance : 0.002348188 [W]
rho max/avg/min : 1.2016112 1.1859538 1.1527129
T   max/avg/min : 306.12074 297.609 293.70833
P   max/avg/min : 101324.91 101316.16 101307.42
Prg max/avg/min : 101325.01 101324.89 101324.3
U   max/avg/min : 0.018412928 0.0081259409 -0.0092409359
Prg max-min : 0.7116747
 
sngrad(rho) :0.18969781 0.054652411 0.010753205
 
Iteration Number = 42

DILUPBiCG:  Solving for Ux, Initial residual = 0.036782397, Final residual = 1.5104131e-06, No Iterations 2
DILUPBiCG:  Solving for Uy, Initial residual = 0.0023599329, Final residual = 2.5313737e-07, No Iterations 2
DILUPBiCG:  Solving for Uz, Initial residual = 0.036322116, Final residual = 4.9378637e-07, No Iterations 2
DILUPBiCG:  Solving for h, Initial residual = 0.010314801, Final residual = 5.6471463e-06, No Iterations 5
GAMG:  Solving for p_rgh, Initial residual = 0.008587646, Final residual = 4.3002434e-06, No Iterations 4
time step continuity errors : sum local = 3.6603353e-05, global = 6.8505756e-06, cumulative = 0.0001917222
ExecutionTime = 5.39 s  ClockTime = 5 s
Inflow      : 5.2077279e-07 [kg/s]
Outflow     : 5.2648616e-07 [kg/s]
EnergyInflow  : 0.15386867 [W]
EnergyOutflow : 0.15696035 [W]
EnergyBalance : 0.0030916773 [W]
rho max/avg/min : 1.2016113 1.1856598 1.152398
T   max/avg/min : 306.20241 297.68363 293.7083
P   max/avg/min : 101324.91 101316.16 101307.42
Prg max/avg/min : 101325.01 101324.89 101324.29
U   max/avg/min : 0.019830183 0.0086885595 -0.0097979347
Prg max-min : 0.71617838
 
sngrad(rho) :0.20543633 0.055286489 0.011476889
 
Iteration Number = 43

DILUPBiCG:  Solving for Ux, Initial residual = 0.034562795, Final residual = 1.4918911e-06, No Iterations 2
DILUPBiCG:  Solving for Uy, Initial residual = 0.0025990467, Final residual = 2.9586091e-07, No Iterations 2
DILUPBiCG:  Solving for Uz, Initial residual = 0.034724127, Final residual = 5.0128012e-07, No Iterations 2
DILUPBiCG:  Solving for h, Initial residual = 0.010134628, Final residual = 2.2317786e-06, No Iterations 6
GAMG:  Solving for p_rgh, Initial residual = 0.0085381993, Final residual = 3.8538016e-06, No Iterations 4
time step continuity errors : sum local = 3.3610695e-05, global = 4.8490945e-06, cumulative = 0.00019657129
ExecutionTime = 5.42 s  ClockTime = 5 s
Inflow      : 6.3844592e-07 [kg/s]
Outflow     : 6.4249006e-07 [kg/s]
EnergyInflow  : 0.18863664 [W]
EnergyOutflow : 0.19143909 [W]
EnergyBalance : 0.0028024553 [W]
rho max/avg/min : 1.2016115 1.1853681 1.1520383
T   max/avg/min : 306.29545 297.75772 293.70823
P   max/avg/min : 101324.91 101316.17 101307.42
Prg max/avg/min : 101325.01 101324.89 101324.29
U   max/avg/min : 0.021296065 0.0092678268 -0.010348402
Prg max-min : 0.72133083
 
sngrad(rho) :0.2216931 0.055883972 0.012277444
 
Iteration Number = 44

DILUPBiCG:  Solving for Ux, Initial residual = 0.033216193, Final residual = 1.4942269e-06, No Iterations 2
DILUPBiCG:  Solving for Uy, Initial residual = 0.0027431065, Final residual = 4.745276e-07, No Iterations 2
DILUPBiCG:  Solving for Uz, Initial residual = 0.033266675, Final residual = 5.0736688e-07, No Iterations 2
DILUPBiCG:  Solving for h, Initial residual = 0.0099696408, Final residual = 7.1184976e-06, No Iterations 5
GAMG:  Solving for p_rgh, Initial residual = 0.01108846, Final residual = 4.60333e-06, No Iterations 4
time step continuity errors : sum local = 4.1064843e-05, global = 7.0699767e-06, cumulative = 0.00020364127
ExecutionTime = 5.45 s  ClockTime = 5 s
Inflow      : 7.6413254e-07 [kg/s]
Outflow     : 7.700289e-07 [kg/s]
EnergyInflow  : 0.22577228 [W]
EnergyOutflow : 0.22935515 [W]
EnergyBalance : 0.0035828642 [W]
rho max/avg/min : 1.2016122 1.1850793 1.1516573
T   max/avg/min : 306.39521 297.83115 293.70808
P   max/avg/min : 101324.91 101316.17 101307.42
Prg max/avg/min : 101325.01 101324.88 101324.28
U   max/avg/min : 0.022807306 0.0098626963 -0.010881781
Prg max-min : 0.72654687
 
sngrad(rho) :0.18514401 0.05335313 0.015423373
 
Iteration Number = 45

DILUPBiCG:  Solving for Ux, Initial residual = 0.03093571, Final residual = 1.5913757e-06, No Iterations 2
DILUPBiCG:  Solving for Uy, Initial residual = 0.0033495727, Final residual = 3.1598924e-07, No Iterations 2
DILUPBiCG:  Solving for Uz, Initial residual = 0.031866649, Final residual = 5.0931879e-07, No Iterations 2
DILUPBiCG:  Solving for h, Initial residual = 0.0097891232, Final residual = 1.925285e-06, No Iterations 6
GAMG:  Solving for p_rgh, Initial residual = 0.0096567618, Final residual = 5.0798025e-06, No Iterations 4
time step continuity errors : sum local = 4.597106e-05, global = 1.0800114e-05, cumulative = 0.00021444138
ExecutionTime = 5.48 s  ClockTime = 5 s
Inflow      : 8.7722224e-07 [kg/s]
Outflow     : 8.8622952e-07 [kg/s]
EnergyInflow  : 0.25918601 [W]
EnergyOutflow : 0.263939 [W]
EnergyBalance : 0.004752985 [W]
rho max/avg/min : 1.2016134 1.1847931 1.1512627
T   max/avg/min : 306.50025 297.90396 293.70778
P   max/avg/min : 101324.91 101316.17 101307.42
Prg max/avg/min : 101325.01 101324.88 101324.28
U   max/avg/min : 0.024352622 0.010462496 -0.011424585
Prg max-min : 0.73219527
 
sngrad(rho) :0.20607338 0.053176921 0.013285614
 
Iteration Number = 46

DILUPBiCG:  Solving for Ux, Initial residual = 0.029419739, Final residual = 1.5400514e-06, No Iterations 2
DILUPBiCG:  Solving for Uy, Initial residual = 0.0035108437, Final residual = 2.4698246e-07, No Iterations 2
DILUPBiCG:  Solving for Uz, Initial residual = 0.030499553, Final residual = 4.99899e-07, No Iterations 2
DILUPBiCG:  Solving for h, Initial residual = 0.0096094614, Final residual = 1.5665279e-06, No Iterations 6
GAMG:  Solving for p_rgh, Initial residual = 0.0085766112, Final residual = 1.5849996e-06, No Iterations 4
time step continuity errors : sum local = 1.4525922e-05, global = 1.5802273e-07, cumulative = 0.0002145994
ExecutionTime = 5.51 s  ClockTime = 5 s
Inflow      : 1.0202061e-06 [kg/s]
Outflow     : 1.0203379e-06 [kg/s]
EnergyInflow  : 0.30143234 [W]
EnergyOutflow : 0.30383221 [W]
EnergyBalance : 0.0023998787 [W]
rho max/avg/min : 1.2016151 1.1845099 1.1508589
T   max/avg/min : 306.60777 297.97607 293.70736
P   max/avg/min : 101324.91 101316.17 101307.42
Prg max/avg/min : 101325.01 101324.88 101324.27
U   max/avg/min : 0.025935282 0.011080871 -0.01194036
Prg max-min : 0.73805495
 
sngrad(rho) :0.22019639 0.053314565 0.013163682
 
Iteration Number = 47

DILUPBiCG:  Solving for Ux, Initial residual = 0.028489282, Final residual = 1.519201e-06, No Iterations 2
DILUPBiCG:  Solving for Uy, Initial residual = 0.003622567, Final residual = 1.0180649e-06, No Iterations 2
DILUPBiCG:  Solving for Uz, Initial residual = 0.029304714, Final residual = 4.9860454e-07, No Iterations 2
DILUPBiCG:  Solving for h, Initial residual = 0.0094320846, Final residual = 1.5116546e-06, No Iterations 6
GAMG:  Solving for p_rgh, Initial residual = 0.007964815, Final residual = 4.3128619e-06, No Iterations 4
time step continuity errors : sum local = 3.9931942e-05, global = 8.2851928e-06, cumulative = 0.0002228846
ExecutionTime = 5.55 s  ClockTime = 5 s
Inflow      : 1.1650446e-06 [kg/s]
Outflow     : 1.1719545e-06 [kg/s]
EnergyInflow  : 0.34422665 [W]
EnergyOutflow : 0.34892122 [W]
EnergyBalance : 0.0046945716 [W]
rho max/avg/min : 1.2016176 1.1842298 1.1504486
T   max/avg/min : 306.71714 298.04745 293.70676
P   max/avg/min : 101324.91 101316.17 101307.42
Prg max/avg/min : 101325.01 101324.88 101324.27
U   max/avg/min : 0.027559046 0.011713005 -0.012419905
Prg max-min : 0.74398951
 
sngrad(rho) :0.23312254 0.053524248 0.013355665
 
Iteration Number = 48

DILUPBiCG:  Solving for Ux, Initial residual = 0.027187715, Final residual = 1.4935251e-06, No Iterations 2
DILUPBiCG:  Solving for Uy, Initial residual = 0.0036573204, Final residual = 2.6769264e-07, No Iterations 2
DILUPBiCG:  Solving for Uz, Initial residual = 0.02813586, Final residual = 4.895281e-07, No Iterations 2
DILUPBiCG:  Solving for h, Initial residual = 0.0092564691, Final residual = 1.6043383e-06, No Iterations 6
GAMG:  Solving for p_rgh, Initial residual = 0.0077250624, Final residual = 1.079811e-06, No Iterations 4
time step continuity errors : sum local = 1.0083151e-05, global = 9.4619408e-07, cumulative = 0.00022383079
ExecutionTime = 5.58 s  ClockTime = 5 s
Inflow      : 1.3389405e-06 [kg/s]
Outflow     : 1.3397296e-06 [kg/s]
EnergyInflow  : 0.3956063 [W]
EnergyOutflow : 0.39880911 [W]
EnergyBalance : 0.0032028084 [W]
rho max/avg/min : 1.2016207 1.1839529 1.1500332
T   max/avg/min : 306.82791 298.11807 293.706
P   max/avg/min : 101324.91 101316.17 101307.42
Prg max/avg/min : 101325.01 101324.88 101324.26
U   max/avg/min : 0.029216676 0.012360402 -0.013106559
Prg max-min : 0.74996525
 
sngrad(rho) :0.24654634 0.053748091 0.013702826
 
Iteration Number = 49

DILUPBiCG:  Solving for Ux, Initial residual = 0.026253818, Final residual = 1.5467438e-06, No Iterations 2
DILUPBiCG:  Solving for Uy, Initial residual = 0.0036486218, Final residual = 3.9112423e-07, No Iterations 2
DILUPBiCG:  Solving for Uz, Initial residual = 0.027131767, Final residual = 4.8167072e-07, No Iterations 2
DILUPBiCG:  Solving for h, Initial residual = 0.009082306, Final residual = 1.4768192e-06, No Iterations 6
GAMG:  Solving for p_rgh, Initial residual = 0.0078657472, Final residual = 2.8503622e-06, No Iterations 4
time step continuity errors : sum local = 2.6817936e-05, global = 6.614414e-06, cumulative = 0.0002304452
ExecutionTime = 5.61 s  ClockTime = 5 s
Inflow      : 1.5151778e-06 [kg/s]
Outflow     : 1.5206942e-06 [kg/s]
EnergyInflow  : 0.44767776 [W]
EnergyOutflow : 0.45261822 [W]
EnergyBalance : 0.0049404549 [W]
rho max/avg/min : 1.2016299 1.1836794 1.149614
T   max/avg/min : 306.93979 298.18791 293.70374
P   max/avg/min : 101324.91 101316.17 101307.42
Prg max/avg/min : 101325.01 101324.87 101324.26
U   max/avg/min : 0.030913343 0.013020228 -0.013783356
Prg max-min : 0.75596233
 
sngrad(rho) :0.26082876 0.053998439 0.013766398
 
Iteration Number = 50

DILUPBiCG:  Solving for Ux, Initial residual = 0.024832913, Final residual = 1.346142e-06, No Iterations 2
DILUPBiCG:  Solving for Uy, Initial residual = 0.0034852706, Final residual = 6.9385398e-07, No Iterations 2
DILUPBiCG:  Solving for Uz, Initial residual = 0.026139645, Final residual = 4.7074651e-07, No Iterations 2
DILUPBiCG:  Solving for h, Initial residual = 0.0089108797, Final residual = 1.2746907e-06, No Iterations 6
GAMG:  Solving for G, Initial residual = 0.24252484, Final residual = 0.18423926, No Iterations 1000
GAMG:  Solving for p_rgh, Initial residual = 0.0078443398, Final residual = 1.1023131e-06, No Iterations 4
time step continuity errors : sum local = 1.0455804e-05, global = 4.5033043e-07, cumulative = 0.00023089553
ExecutionTime = 6.43 s  ClockTime = 6 s
Inflow      : 1.720477e-06 [kg/s]
Outflow     : 1.7208526e-06 [kg/s]
EnergyInflow  : 0.50833593 [W]
EnergyOutflow : 0.51212676 [W]
EnergyBalance : 0.0037908385 [W]
rho max/avg/min : 1.2016367 1.1834092 1.1491919
T   max/avg/min : 307.05256 298.25693 293.70208
P   max/avg/min : 101324.91 101316.17 101307.43
Prg max/avg/min : 101325.01 101324.87 101324.25
U   max/avg/min : 0.032645045 0.013694526 -0.014485525
Prg max-min : 0.7620178
 
sngrad(rho) :0.27549239 0.05425911 0.013624782
 
Iteration Number = 51

DILUPBiCG:  Solving for Ux, Initial residual = 0.024209875, Final residual = 1.5706279e-06, No Iterations 2
DILUPBiCG:  Solving for Uy, Initial residual = 0.003263974, Final residual = 5.3531475e-07, No Iterations 2
DILUPBiCG:  Solving for Uz, Initial residual = 0.025292884, Final residual = 4.5726655e-07, No Iterations 2
DILUPBiCG:  Solving for h, Initial residual = 0.0090109123, Final residual = 1.7010155e-06, No Iterations 6
GAMG:  Solving for p_rgh, Initial residual = 0.0082743341, Final residual = 1.7892479e-06, No Iterations 4
time step continuity errors : sum local = 1.7063145e-05, global = 5.1024845e-06, cumulative = 0.00023599802
ExecutionTime = 6.46 s  ClockTime = 6 s
Inflow      : 1.9295755e-06 [kg/s]
Outflow     : 1.933831e-06 [kg/s]
EnergyInflow  : 0.57011664 [W]
EnergyOutflow : 0.57544973 [W]
EnergyBalance : 0.0053330955 [W]
rho max/avg/min : 1.2016416 1.1831595 1.149073
T   max/avg/min : 307.08431 298.32064 293.70089
P   max/avg/min : 101324.91 101316.17 101307.43
Prg max/avg/min : 101325.01 101324.87 101324.25
U   max/avg/min : 0.034411785 0.014380167 -0.015118255
Prg max-min : 0.76360159
 
sngrad(rho) :0.29062283 0.052214866 0.013227559
 
Iteration Number = 52

DILUPBiCG:  Solving for Ux, Initial residual = 0.022838135, Final residual = 1.3101454e-06, No Iterations 2
DILUPBiCG:  Solving for Uy, Initial residual = 0.003391704, Final residual = 4.8670799e-07, No Iterations 2
DILUPBiCG:  Solving for Uz, Initial residual = 0.024424046, Final residual = 4.4462538e-07, No Iterations 2
DILUPBiCG:  Solving for h, Initial residual = 0.0078513047, Final residual = 4.180755e-06, No Iterations 6
GAMG:  Solving for p_rgh, Initial residual = 0.0082581214, Final residual = 1.2394105e-06, No Iterations 4
time step continuity errors : sum local = 1.186841e-05, global = 7.8870614e-07, cumulative = 0.00023678672
ExecutionTime = 6.5 s  ClockTime = 6 s
Inflow      : 2.1607855e-06 [kg/s]
Outflow     : 2.1614433e-06 [kg/s]
EnergyInflow  : 0.63843044 [W]
EnergyOutflow : 0.64312508 [W]
EnergyBalance : 0.0046946444 [W]
rho max/avg/min : 1.2016444 1.182913 1.1488164
T   max/avg/min : 307.15291 298.38359 293.70021
P   max/avg/min : 101324.91 101316.17 101307.43
Prg max/avg/min : 101325.02 101324.87 101324.25
U   max/avg/min : 0.036210163 0.015077326 -0.015750885
Prg max-min : 0.76721433
 
sngrad(rho) :0.30591208 0.052567022 0.01281827
 
Iteration Number = 53

DILUPBiCG:  Solving for Ux, Initial residual = 0.022170852, Final residual = 1.3997022e-06, No Iterations 2
DILUPBiCG:  Solving for Uy, Initial residual = 0.003895907, Final residual = 1.250424e-06, No Iterations 2
DILUPBiCG:  Solving for Uz, Initial residual = 0.023686016, Final residual = 4.3005123e-07, No Iterations 2
DILUPBiCG:  Solving for h, Initial residual = 0.0077060008, Final residual = 5.2300656e-07, No Iterations 7
GAMG:  Solving for p_rgh, Initial residual = 0.0085353907, Final residual = 9.6241201e-07, No Iterations 4
time step continuity errors : sum local = 9.263321e-06, global = 3.339826e-06, cumulative = 0.00024012655
ExecutionTime = 6.53 s  ClockTime = 6 s
Inflow      : 2.397958e-06 [kg/s]
Outflow     : 2.4007434e-06 [kg/s]
EnergyInflow  : 0.70850595 [W]
EnergyOutflow : 0.71428131 [W]
EnergyBalance : 0.0057753629 [W]
rho max/avg/min : 1.2016457 1.1826704 1.148519
T   max/avg/min : 307.23245 298.44558 293.69989
P   max/avg/min : 101324.91 101316.17 101307.43
Prg max/avg/min : 101325.02 101324.87 101324.24
U   max/avg/min : 0.038039473 0.015783913 -0.016358898
Prg max-min : 0.77139669
 
sngrad(rho) :0.32147316 0.052868668 0.012390102
 
Iteration Number = 54

DILUPBiCG:  Solving for Ux, Initial residual = 0.021261134, Final residual = 1.3925061e-06, No Iterations 2
DILUPBiCG:  Solving for Uy, Initial residual = 0.0040360649, Final residual = 6.5881902e-09, No Iterations 3
DILUPBiCG:  Solving for Uz, Initial residual = 0.022916323, Final residual = 4.2039805e-07, No Iterations 2
DILUPBiCG:  Solving for h, Initial residual = 0.0075596324, Final residual = 8.7500286e-07, No Iterations 7
GAMG:  Solving for p_rgh, Initial residual = 0.0088010987, Final residual = 2.4196427e-06, No Iterations 4
time step continuity errors : sum local = 2.3199107e-05, global = -2.2975875e-07, cumulative = 0.00023989679
ExecutionTime = 6.56 s  ClockTime = 6 s
Inflow      : 2.6557619e-06 [kg/s]
Outflow     : 2.6555703e-06 [kg/s]
EnergyInflow  : 0.78467726 [W]
EnergyOutflow : 0.79005509 [W]
EnergyBalance : 0.0053778226 [W]
rho max/avg/min : 1.201646 1.1824322 1.1482015
T   max/avg/min : 307.3174 298.50654 293.69981
P   max/avg/min : 101324.91 101316.17 101307.43
Prg max/avg/min : 101325.02 101324.87 101324.24
U   max/avg/min : 0.039898512 0.016501078 -0.016940787
Prg max-min : 0.77586994
 
sngrad(rho) :0.337279 0.053174083 0.011994481
 
Iteration Number = 55

DILUPBiCG:  Solving for Ux, Initial residual = 0.020821907, Final residual = 1.264803e-06, No Iterations 2
DILUPBiCG:  Solving for Uy, Initial residual = 0.004057305, Final residual = 3.5950825e-07, No Iterations 2
DILUPBiCG:  Solving for Uz, Initial residual = 0.022299779, Final residual = 4.1194221e-07, No Iterations 2
DILUPBiCG:  Solving for h, Initial residual = 0.0074341159, Final residual = 7.2694001e-06, No Iterations 6
GAMG:  Solving for p_rgh, Initial residual = 0.012390092, Final residual = 4.6532687e-06, No Iterations 4
time step continuity errors : sum local = 4.4286621e-05, global = 7.8713958e-08, cumulative = 0.00023997551
ExecutionTime = 6.59 s  ClockTime = 6 s
Inflow      : 2.9263907e-06 [kg/s]
Outflow     : 2.9264564e-06 [kg/s]
EnergyInflow  : 0.86463784 [W]
EnergyOutflow : 0.87062764 [W]
EnergyBalance : 0.0059897931 [W]
rho max/avg/min : 1.2016459 1.1821978 1.147871
T   max/avg/min : 307.4059 298.56656 293.69964
P   max/avg/min : 101324.91 101316.17 101307.43
Prg max/avg/min : 101325.02 101324.86 101324.24
U   max/avg/min : 0.041784235 0.017227767 -0.017495396
Prg max-min : 0.77991512
 
sngrad(rho) :0.24980292 0.048481285 0.01302533
 
Iteration Number = 56

DILUPBiCG:  Solving for Ux, Initial residual = 0.01956339, Final residual = 1.243406e-06, No Iterations 2
DILUPBiCG:  Solving for Uy, Initial residual = 0.004673046, Final residual = 7.2565166e-07, No Iterations 2
DILUPBiCG:  Solving for Uz, Initial residual = 0.02165717, Final residual = 4.0122563e-07, No Iterations 2
DILUPBiCG:  Solving for h, Initial residual = 0.0072937527, Final residual = 6.2815353e-06, No Iterations 7
GAMG:  Solving for p_rgh, Initial residual = 0.010893986, Final residual = 5.6823955e-06, No Iterations 4
time step continuity errors : sum local = 5.3554814e-05, global = -2.5697257e-06, cumulative = 0.00023740578
ExecutionTime = 6.63 s  ClockTime = 6 s
Inflow      : 3.2187275e-06 [kg/s]
Outflow     : 3.2165844e-06 [kg/s]
EnergyInflow  : 0.95101232 [W]
EnergyOutflow : 0.95692423 [W]
EnergyBalance : 0.0059119144 [W]
rho max/avg/min : 1.2016457 1.1819684 1.1475324
T   max/avg/min : 307.4966 298.62539 293.69951
P   max/avg/min : 101324.91 101316.17 101307.43
Prg max/avg/min : 101325.02 101324.86 101324.23
U   max/avg/min : 0.043696331 0.017964811 -0.017986984
Prg max-min : 0.78473807
 
sngrad(rho) :0.27149498 0.047793901 0.0082708829
 
Iteration Number = 57

DILUPBiCG:  Solving for Ux, Initial residual = 0.018963194, Final residual = 1.261577e-06, No Iterations 2
DILUPBiCG:  Solving for Uy, Initial residual = 0.0048361423, Final residual = 3.9156121e-07, No Iterations 2
DILUPBiCG:  Solving for Uz, Initial residual = 0.02111938, Final residual = 3.9265201e-07, No Iterations 2
DILUPBiCG:  Solving for h, Initial residual = 0.0071381963, Final residual = 5.3647654e-06, No Iterations 7
GAMG:  Solving for p_rgh, Initial residual = 0.0090286047, Final residual = 4.7554552e-06, No Iterations 4
time step continuity errors : sum local = 4.4211797e-05, global = -5.6073525e-06, cumulative = 0.00023179843
ExecutionTime = 6.66 s  ClockTime = 6 s
Inflow      : 3.5288388e-06 [kg/s]
Outflow     : 3.5241622e-06 [kg/s]
EnergyInflow  : 1.0426385 [W]
EnergyOutflow : 1.0484008 [W]
EnergyBalance : 0.0057623189 [W]
rho max/avg/min : 1.2016456 1.1817436 1.1471873
T   max/avg/min : 307.58911 298.6831 293.69926
P   max/avg/min : 101324.91 101316.17 101307.43
Prg max/avg/min : 101325.02 101324.86 101324.23
U   max/avg/min : 0.045633231 0.018711596 -0.01845076
Prg max-min : 0.7897729
 
sngrad(rho) :0.28367564 0.047572351 0.0082004004
 
Iteration Number = 58

DILUPBiCG:  Solving for Ux, Initial residual = 0.018335963, Final residual = 1.3532219e-06, No Iterations 2
DILUPBiCG:  Solving for Uy, Initial residual = 0.0051673457, Final residual = 6.4114949e-07, No Iterations 2
DILUPBiCG:  Solving for Uz, Initial residual = 0.020592365, Final residual = 3.8560419e-07, No Iterations 2
DILUPBiCG:  Solving for h, Initial residual = 0.0069864441, Final residual = 5.8467168e-06, No Iterations 6
GAMG:  Solving for p_rgh, Initial residual = 0.0084986316, Final residual = 4.9780052e-06, No Iterations 4
time step continuity errors : sum local = 4.5598505e-05, global = -8.160073e-06, cumulative = 0.00022363835
ExecutionTime = 6.7 s  ClockTime = 6 s
Inflow      : 3.8416248e-06 [kg/s]
Outflow     : 3.8348193e-06 [kg/s]
EnergyInflow  : 1.1350549 [W]
EnergyOutflow : 1.1408136 [W]
EnergyBalance : 0.0057586363 [W]
rho max/avg/min : 1.2016456 1.1815232 1.1468364
T   max/avg/min : 307.68322 298.73974 293.69899
P   max/avg/min : 101324.91 101316.17 101307.43
Prg max/avg/min : 101325.02 101324.86 101324.22
U   max/avg/min : 0.047589254 0.019462016 -0.018903804
Prg max-min : 0.79478552
 
sngrad(rho) :0.2936651 0.047577631 0.0084423034
 
Iteration Number = 59

DILUPBiCG:  Solving for Ux, Initial residual = 0.017866539, Final residual = 1.2993806e-06, No Iterations 2
DILUPBiCG:  Solving for Uy, Initial residual = 0.0052235376, Final residual = 6.8201542e-09, No Iterations 3
DILUPBiCG:  Solving for Uz, Initial residual = 0.019964201, Final residual = 3.763931e-07, No Iterations 2
DILUPBiCG:  Solving for h, Initial residual = 0.0068377087, Final residual = 5.8188858e-06, No Iterations 6
GAMG:  Solving for p_rgh, Initial residual = 0.0086562952, Final residual = 6.9113075e-06, No Iterations 4
time step continuity errors : sum local = 6.2344921e-05, global = -8.0631733e-06, cumulative = 0.00021557518
ExecutionTime = 6.72 s  ClockTime = 6 s
Inflow      : 4.1727011e-06 [kg/s]
Outflow     : 4.1659764e-06 [kg/s]
EnergyInflow  : 1.2328754 [W]
EnergyOutflow : 1.2393204 [W]
EnergyBalance : 0.0064449786 [W]
rho max/avg/min : 1.2016455 1.1813076 1.1464816
T   max/avg/min : 307.77845 298.7952 293.69872
P   max/avg/min : 101324.91 101316.17 101307.43
Prg max/avg/min : 101325.02 101324.86 101324.22
U   max/avg/min : 0.04956726 0.02022055 -0.01933135
Prg max-min : 0.79980769
 
sngrad(rho) :0.30346907 0.047553478 0.0090549432
 
Iteration Number = 60

DILUPBiCG:  Solving for Ux, Initial residual = 0.017551718, Final residual = 1.1767759e-06, No Iterations 2
DILUPBiCG:  Solving for Uy, Initial residual = 0.0056065104, Final residual = 7.2048682e-07, No Iterations 2
DILUPBiCG:  Solving for Uz, Initial residual = 0.019582236, Final residual = 3.728755e-07, No Iterations 2
DILUPBiCG:  Solving for h, Initial residual = 0.0066908455, Final residual = 5.311003e-06, No Iterations 6
GAMG:  Solving for G, Initial residual = 0.24220392, Final residual = 0.18635001, No Iterations 1000
GAMG:  Solving for p_rgh, Initial residual = 0.0094398374, Final residual = 8.1980979e-06, No Iterations 4
time step continuity errors : sum local = 7.2803287e-05, global = -9.5799226e-06, cumulative = 0.00020599526
ExecutionTime = 7.54 s  ClockTime = 7 s
Inflow      : 4.5246101e-06 [kg/s]
Outflow     : 4.5166205e-06 [kg/s]
EnergyInflow  : 1.3368513 [W]
EnergyOutflow : 1.3436226 [W]
EnergyBalance : 0.0067713595 [W]
rho max/avg/min : 1.2016456 1.181097 1.1461236
T   max/avg/min : 307.87459 298.84946 293.69846
P   max/avg/min : 101324.91 101316.17 101307.43
Prg max/avg/min : 101325.02 101324.85 101324.21
U   max/avg/min : 0.051568419 0.020988352 -0.019794564
Prg max-min : 0.80485459
 
sngrad(rho) :0.3139428 0.047527225 0.0090797537
 
Iteration Number = 61

DILUPBiCG:  Solving for Ux, Initial residual = 0.017247353, Final residual = 1.8359641e-06, No Iterations 2
DILUPBiCG:  Solving for Uy, Initial residual = 0.0056445155, Final residual = 9.6550311e-07, No Iterations 2
DILUPBiCG:  Solving for Uz, Initial residual = 0.019205123, Final residual = 3.6938004e-07, No Iterations 2
DILUPBiCG:  Solving for h, Initial residual = 0.0067001495, Final residual = 5.2126457e-06, No Iterations 6
GAMG:  Solving for p_rgh, Initial residual = 0.010344806, Final residual = 8.8054666e-06, No Iterations 4
time step continuity errors : sum local = 7.6973293e-05, global = -1.0775719e-05, cumulative = 0.00019521954
ExecutionTime = 7.57 s  ClockTime = 7 s
Inflow      : 4.8942666e-06 [kg/s]
Outflow     : 4.8852797e-06 [kg/s]
EnergyInflow  : 1.4460708 [W]
EnergyOutflow : 1.4532848 [W]
EnergyBalance : 0.0072140101 [W]
rho max/avg/min : 1.2016456 1.180904 1.1460044
T   max/avg/min : 307.90661 298.8991 293.69819
P   max/avg/min : 101324.91 101316.17 101307.43
Prg max/avg/min : 101325.02 101324.85 101324.21
U   max/avg/min : 0.053592857 0.021764022 -0.020252029
Prg max-min : 0.80639241
 
sngrad(rho) :0.3248418 0.045680898 0.0085662288
 
Iteration Number = 62

DILUPBiCG:  Solving for Ux, Initial residual = 0.016946107, Final residual = 1.6190934e-06, No Iterations 2
DILUPBiCG:  Solving for Uy, Initial residual = 0.0058919647, Final residual = 2.943817e-06, No Iterations 2
DILUPBiCG:  Solving for Uz, Initial residual = 0.018856354, Final residual = 3.6682502e-07, No Iterations 2
DILUPBiCG:  Solving for h, Initial residual = 0.0059071206, Final residual = 4.0903383e-06, No Iterations 6
GAMG:  Solving for p_rgh, Initial residual = 0.010884716, Final residual = 9.1738377e-06, No Iterations 4
time step continuity errors : sum local = 7.9312985e-05, global = -9.5880471e-06, cumulative = 0.00018563149
ExecutionTime = 7.6 s  ClockTime = 7 s
Inflow      : 5.279247e-06 [kg/s]
Outflow     : 5.2712506e-06 [kg/s]
EnergyInflow  : 1.5598179 [W]
EnergyOutflow : 1.5680985 [W]
EnergyBalance : 0.0082805866 [W]
rho max/avg/min : 1.2016456 1.1807159 1.1457756
T   max/avg/min : 307.96809 298.94758 293.69793
P   max/avg/min : 101324.91 101316.17 101307.43
Prg max/avg/min : 101325.02 101324.85 101324.21
U   max/avg/min : 0.05564033 0.022547135 -0.020672548
Prg max-min : 0.80952264
 
sngrad(rho) :0.33591468 0.045706149 0.0078568782
 
Iteration Number = 63

DILUPBiCG:  Solving for Ux, Initial residual = 0.016675926, Final residual = 1.6564347e-06, No Iterations 2
DILUPBiCG:  Solving for Uy, Initial residual = 0.005935071, Final residual = 1.1155254e-06, No Iterations 2
DILUPBiCG:  Solving for Uz, Initial residual = 0.018543887, Final residual = 3.6615082e-07, No Iterations 2
DILUPBiCG:  Solving for h, Initial residual = 0.005774327, Final residual = 3.9937839e-06, No Iterations 6
GAMG:  Solving for p_rgh, Initial residual = 0.011244786, Final residual = 9.1011345e-06, No Iterations 4
time step continuity errors : sum local = 7.7921443e-05, global = -4.9887357e-06, cumulative = 0.00018064276
ExecutionTime = 7.64 s  ClockTime = 7 s
Inflow      : 5.6785958e-06 [kg/s]
Outflow     : 5.6744352e-06 [kg/s]
EnergyInflow  : 1.6778104 [W]
EnergyOutflow : 1.6880343 [W]
EnergyBalance : 0.010223865 [W]
rho max/avg/min : 1.2016456 1.1805332 1.1455143
T   max/avg/min : 308.03834 298.99474 293.69767
P   max/avg/min : 101324.91 101316.17 101307.43
Prg max/avg/min : 101325.02 101324.85 101324.2
U   max/avg/min : 0.05771004 0.023337198 -0.021067406
Prg max-min : 0.81311756
 
sngrad(rho) :0.34705059 0.045647472 0.0070798765
 
Iteration Number = 64

DILUPBiCG:  Solving for Ux, Initial residual = 0.016302324, Final residual = 1.7724364e-06, No Iterations 2
DILUPBiCG:  Solving for Uy, Initial residual = 0.0056734146, Final residual = 7.2088953e-07, No Iterations 2
DILUPBiCG:  Solving for Uz, Initial residual = 0.018247881, Final residual = 3.6809649e-07, No Iterations 2
DILUPBiCG:  Solving for h, Initial residual = 0.0056427713, Final residual = 3.0564481e-06, No Iterations 6
GAMG:  Solving for p_rgh, Initial residual = 0.011587256, Final residual = 8.7015087e-06, No Iterations 4
time step continuity errors : sum local = 7.3871307e-05, global = 4.9093661e-07, cumulative = 0.00018113369
ExecutionTime = 7.66 s  ClockTime = 7 s
Inflow      : 6.0947127e-06 [kg/s]
Outflow     : 6.0951221e-06 [kg/s]
EnergyInflow  : 1.8007572 [W]
EnergyOutflow : 1.8131763 [W]
EnergyBalance : 0.012419081 [W]
rho max/avg/min : 1.2016456 1.1803561 1.1452368
T   max/avg/min : 308.11298 299.04053 293.69745
P   max/avg/min : 101324.91 101316.17 101307.43
Prg max/avg/min : 101325.02 101324.85 101324.2
U   max/avg/min : 0.0598011 0.024134379 -0.021421805
Prg max-min : 0.81693707
 
sngrad(rho) :0.35817097 0.045552023 0.0061919016
 
Iteration Number = 65

DILUPBiCG:  Solving for Ux, Initial residual = 0.016005384, Final residual = 1.9318592e-06, No Iterations 2
DILUPBiCG:  Solving for Uy, Initial residual = 0.0057749299, Final residual = 2.5061619e-06, No Iterations 2
[...]
time step continuity errors : sum local = 9.1471816e-08, global = -3.320488e-08, cumulative = 4.4345491e-05
ExecutionTime = 95.97 s  ClockTime = 96 s
Inflow      : 3.1167304e-05 [kg/s]
Outflow     : 3.1167277e-05 [kg/s]
EnergyInflow  : 9.2087603 [W]
EnergyOutflow : 9.2450799 [W]
EnergyBalance : 0.036319577 [W]
rho max/avg/min : 1.2016472 1.1805532 1.1377353
T   max/avg/min : 310.1444 299.02588 293.68714
P   max/avg/min : 101324.91 101316.16 101307.41
Prg max/avg/min : 101325 101324.83 101324.06
U   max/avg/min : 0.42786404 0.141625 0
Prg max-min : 0.93481934
 
sngrad(rho) :0.00053889064 -0.00019355393 -0.00045753448
 
Iteration Number = 844

DILUPBiCG:  Solving for Ux, Initial residual = 3.316827e-05, Final residual = 9.2973401e-10, No Iterations 2
DILUPBiCG:  Solving for Uy, Initial residual = 0.010743008, Final residual = 2.2148086e-06, No Iterations 2
DILUPBiCG:  Solving for Uz, Initial residual = 4.6628467e-05, Final residual = 5.4257965e-09, No Iterations 2
DILUPBiCG:  Solving for h, Initial residual = 2.0580802e-05, Final residual = 1.9822677e-08, No Iterations 5
GAMG:  Solving for p_rgh, Initial residual = 1.295504e-05, Final residual = 5.3476281e-08, No Iterations 3
time step continuity errors : sum local = 1.5881876e-07, global = -3.3214825e-08, cumulative = 4.4312276e-05
ExecutionTime = 95.99 s  ClockTime = 96 s
Inflow      : 3.1167706e-05 [kg/s]
Outflow     : 3.1167679e-05 [kg/s]
EnergyInflow  : 9.208879 [W]
EnergyOutflow : 9.2451987 [W]
EnergyBalance : 0.036319678 [W]
rho max/avg/min : 1.2016472 1.1805532 1.1377315
T   max/avg/min : 310.14543 299.02589 293.68714
P   max/avg/min : 101324.91 101316.16 101307.41
Prg max/avg/min : 101325 101324.83 101324.06
U   max/avg/min : 0.42789874 0.14163573 0
Prg max-min : 0.93487539
 
sngrad(rho) :0.00037884675 -0.00019133111 -0.0004386289
 
Iteration Number = 845

DILUPBiCG:  Solving for Ux, Initial residual = 3.2034821e-05, Final residual = 7.0328279e-10, No Iterations 2
DILUPBiCG:  Solving for Uy, Initial residual = 0.011232599, Final residual = 1.56598e-06, No Iterations 2
DILUPBiCG:  Solving for Uz, Initial residual = 4.64625e-05, Final residual = 5.3839547e-09, No Iterations 2
DILUPBiCG:  Solving for h, Initial residual = 1.8555273e-05, Final residual = 1.7427378e-08, No Iterations 5
GAMG:  Solving for p_rgh, Initial residual = 1.2852528e-05, Final residual = 3.0120121e-08, No Iterations 3
time step continuity errors : sum local = 9.4197321e-08, global = -3.4829363e-08, cumulative = 4.4277447e-05
ExecutionTime = 96.03 s  ClockTime = 96 s
Inflow      : 3.1168111e-05 [kg/s]
Outflow     : 3.1168082e-05 [kg/s]
EnergyInflow  : 9.2089986 [W]
EnergyOutflow : 9.245318 [W]
EnergyBalance : 0.036319385 [W]
rho max/avg/min : 1.2016472 1.1805531 1.1377285
T   max/avg/min : 310.14626 299.0259 293.68714
P   max/avg/min : 101324.91 101316.16 101307.41
Prg max/avg/min : 101325 101324.83 101324.06
U   max/avg/min : 0.42793327 0.1416464 0
Prg max-min : 0.93492008
 
sngrad(rho) :0.0002819093 -0.00018916827 -0.00042312977
 
Iteration Number = 846

DILUPBiCG:  Solving for Ux, Initial residual = 3.37258e-05, Final residual = 1.1969491e-09, No Iterations 2
DILUPBiCG:  Solving for Uy, Initial residual = 0.010030781, Final residual = 1.7870235e-06, No Iterations 2
DILUPBiCG:  Solving for Uz, Initial residual = 4.6202618e-05, Final residual = 5.37706e-09, No Iterations 2
DILUPBiCG:  Solving for h, Initial residual = 1.7007743e-05, Final residual = 1.5989368e-08, No Iterations 5
GAMG:  Solving for p_rgh, Initial residual = 1.2849724e-05, Final residual = 4.416003e-08, No Iterations 3
time step continuity errors : sum local = 1.3389914e-07, global = -3.4236832e-08, cumulative = 4.424321e-05
ExecutionTime = 96.06 s  ClockTime = 96 s
Inflow      : 3.1168514e-05 [kg/s]
Outflow     : 3.1168485e-05 [kg/s]
EnergyInflow  : 9.2091176 [W]
EnergyOutflow : 9.2454373 [W]
EnergyBalance : 0.036319641 [W]
rho max/avg/min : 1.2016472 1.1805531 1.1377259
T   max/avg/min : 310.14696 299.02592 293.68714
P   max/avg/min : 101324.91 101316.16 101307.41
Prg max/avg/min : 101325 101324.83 101324.06
U   max/avg/min : 0.42796763 0.14165703 0
Prg max-min : 0.93495811
 
sngrad(rho) :0.00021555837 -0.00018715249 -0.00040918498
 
Iteration Number = 847

DILUPBiCG:  Solving for Ux, Initial residual = 3.1778283e-05, Final residual = 6.9462506e-10, No Iterations 2
DILUPBiCG:  Solving for Uy, Initial residual = 0.0098252419, Final residual = 1.486443e-06, No Iterations 2
DILUPBiCG:  Solving for Uz, Initial residual = 4.6025987e-05, Final residual = 5.3416291e-09, No Iterations 2
DILUPBiCG:  Solving for h, Initial residual = 1.5762692e-05, Final residual = 1.4001897e-08, No Iterations 5
GAMG:  Solving for p_rgh, Initial residual = 1.2840373e-05, Final residual = 3.5716418e-08, No Iterations 3
time step continuity errors : sum local = 1.0742366e-07, global = -3.5406114e-08, cumulative = 4.4207804e-05
ExecutionTime = 96.09 s  ClockTime = 96 s
Inflow      : 3.1168919e-05 [kg/s]
Outflow     : 3.1168889e-05 [kg/s]
EnergyInflow  : 9.2092374 [W]
EnergyOutflow : 9.2455568 [W]
EnergyBalance : 0.036319477 [W]
rho max/avg/min : 1.2016472 1.180553 1.1377237
T   max/avg/min : 310.14756 299.02594 293.68714
P   max/avg/min : 101324.91 101316.16 101307.41
Prg max/avg/min : 101325 101324.83 101324.06
U   max/avg/min : 0.42800182 0.14166761 0
Prg max-min : 0.9349904
 
sngrad(rho) :0.00016673819 -0.00018539194 -0.00039704733
 
Iteration Number = 848

DILUPBiCG:  Solving for Ux, Initial residual = 3.2859295e-05, Final residual = 9.90907e-10, No Iterations 2
DILUPBiCG:  Solving for Uy, Initial residual = 0.010007206, Final residual = 1.0863363e-06, No Iterations 2
DILUPBiCG:  Solving for Uz, Initial residual = 4.5809497e-05, Final residual = 5.3248939e-09, No Iterations 2
DILUPBiCG:  Solving for h, Initial residual = 1.4738483e-05, Final residual = 1.2352272e-08, No Iterations 5
GAMG:  Solving for p_rgh, Initial residual = 1.2839133e-05, Final residual = 3.2998967e-08, No Iterations 3
time step continuity errors : sum local = 1.0159091e-07, global = -3.4982888e-08, cumulative = 4.4172821e-05
ExecutionTime = 96.12 s  ClockTime = 96 s
Inflow      : 3.1169322e-05 [kg/s]
Outflow     : 3.1169293e-05 [kg/s]
EnergyInflow  : 9.2093566 [W]
EnergyOutflow : 9.2456763 [W]
EnergyBalance : 0.036319722 [W]
rho max/avg/min : 1.2016472 1.180553 1.1377218
T   max/avg/min : 310.14808 299.02596 293.68714
P   max/avg/min : 101324.91 101316.16 101307.41
Prg max/avg/min : 101325 101324.83 101324.06
U   max/avg/min : 0.42803585 0.14167814 0
Prg max-min : 0.93501857
 
sngrad(rho) :0.00012899554 -0.00018383057 -0.00038591245
 
Iteration Number = 849

DILUPBiCG:  Solving for Ux, Initial residual = 3.1835273e-05, Final residual = 7.8224537e-10, No Iterations 2
DILUPBiCG:  Solving for Uy, Initial residual = 0.01003119, Final residual = 1.9129387e-06, No Iterations 2
DILUPBiCG:  Solving for Uz, Initial residual = 4.5592089e-05, Final residual = 5.3078177e-09, No Iterations 2
DILUPBiCG:  Solving for h, Initial residual = 1.3862273e-05, Final residual = 1.0700914e-08, No Iterations 5
GAMG:  Solving for p_rgh, Initial residual = 1.2800376e-05, Final residual = 4.3269094e-08, No Iterations 3
time step continuity errors : sum local = 1.3004111e-07, global = -3.460602e-08, cumulative = 4.4138215e-05
ExecutionTime = 96.15 s  ClockTime = 96 s
Inflow      : 3.1169726e-05 [kg/s]
Outflow     : 3.1169697e-05 [kg/s]
EnergyInflow  : 9.2094759 [W]
EnergyOutflow : 9.2457959 [W]
EnergyBalance : 0.036319979 [W]
rho max/avg/min : 1.2016472 1.1805529 1.1377201
T   max/avg/min : 310.14853 299.02599 293.68714
P   max/avg/min : 101324.91 101316.16 101307.41
Prg max/avg/min : 101325 101324.83 101324.06
U   max/avg/min : 0.42806971 0.14168862 0
Prg max-min : 0.93504362
 
sngrad(rho) :9.8761779e-05 -0.00018247715 -0.0003751365
 
Iteration Number = 850

DILUPBiCG:  Solving for Ux, Initial residual = 3.1602243e-05, Final residual = 7.7334301e-10, No Iterations 2
DILUPBiCG:  Solving for Uy, Initial residual = 0.0098892232, Final residual = 1.3038846e-06, No Iterations 2
DILUPBiCG:  Solving for Uz, Initial residual = 4.5408845e-05, Final residual = 5.2841574e-09, No Iterations 2
DILUPBiCG:  Solving for h, Initial residual = 1.3106619e-05, Final residual = 1.0118579e-08, No Iterations 5
GAMG:  Solving for G, Initial residual = 0.15648105, Final residual = 0.16156992, No Iterations 1000
GAMG:  Solving for p_rgh, Initial residual = 1.2715899e-05, Final residual = 3.4643972e-08, No Iterations 3
time step continuity errors : sum local = 1.0638289e-07, global = -3.4576797e-08, cumulative = 4.4103638e-05
ExecutionTime = 96.99 s  ClockTime = 97 s
Inflow      : 3.1170131e-05 [kg/s]
Outflow     : 3.1170102e-05 [kg/s]
EnergyInflow  : 9.2095954 [W]
EnergyOutflow : 9.2459156 [W]
EnergyBalance : 0.036320175 [W]
rho max/avg/min : 1.2016472 1.1805528 1.1377186
T   max/avg/min : 310.14894 299.02602 293.68714
P   max/avg/min : 101324.91 101316.16 101307.41
Prg max/avg/min : 101325 101324.83 101324.06
U   max/avg/min : 0.42810341 0.14169905 0
Prg max-min : 0.93506569
 
sngrad(rho) :7.3845076e-05 -0.0001813229 -0.00036577312
 
Iteration Number = 851

DILUPBiCG:  Solving for Ux, Initial residual = 3.203321e-05, Final residual = 9.0172108e-10, No Iterations 2
DILUPBiCG:  Solving for Uy, Initial residual = 0.0097451298, Final residual = 1.0789492e-06, No Iterations 2
DILUPBiCG:  Solving for Uz, Initial residual = 4.5194366e-05, Final residual = 5.267741e-09, No Iterations 2
DILUPBiCG:  Solving for h, Initial residual = 1.5573746e-05, Final residual = 1.2837971e-08, No Iterations 5
GAMG:  Solving for p_rgh, Initial residual = 1.4924791e-05, Final residual = 4.315974e-08, No Iterations 3
time step continuity errors : sum local = 1.2688686e-07, global = -3.702029e-08, cumulative = 4.4066618e-05
ExecutionTime = 97.02 s  ClockTime = 97 s
Inflow      : 3.1170536e-05 [kg/s]
Outflow     : 3.1170506e-05 [kg/s]
EnergyInflow  : 9.2097153 [W]
EnergyOutflow : 9.2460351 [W]
EnergyBalance : 0.036319789 [W]
rho max/avg/min : 1.2016472 1.1805529 1.1377201
T   max/avg/min : 310.14853 299.026 293.68714
P   max/avg/min : 101324.91 101316.16 101307.41
Prg max/avg/min : 101325 101324.83 101324.06
U   max/avg/min : 0.42813695 0.14170944 0
Prg max-min : 0.93504408
 
sngrad(rho) :-4.8947309e-05 -0.00020175406 -0.00035679501
 
Iteration Number = 852

DILUPBiCG:  Solving for Ux, Initial residual = 3.1223243e-05, Final residual = 7.4345943e-10, No Iterations 2
DILUPBiCG:  Solving for Uy, Initial residual = 0.010228397, Final residual = 1.1663651e-06, No Iterations 2
DILUPBiCG:  Solving for Uz, Initial residual = 4.5011961e-05, Final residual = 5.2432517e-09, No Iterations 2
DILUPBiCG:  Solving for h, Initial residual = 8.5012274e-06, Final residual = 5.0351546e-09, No Iterations 5
GAMG:  Solving for p_rgh, Initial residual = 1.2960047e-05, Final residual = 3.143457e-08, No Iterations 3
time step continuity errors : sum local = 9.6949402e-08, global = -3.6362286e-08, cumulative = 4.4030255e-05
ExecutionTime = 97.06 s  ClockTime = 97 s
Inflow      : 3.117094e-05 [kg/s]
Outflow     : 3.1170909e-05 [kg/s]
EnergyInflow  : 9.2098344 [W]
EnergyOutflow : 9.2461546 [W]
EnergyBalance : 0.036320192 [W]
rho max/avg/min : 1.2016472 1.1805529 1.1377205
T   max/avg/min : 310.14843 299.02598 293.68714
P   max/avg/min : 101324.91 101316.16 101307.41
Prg max/avg/min : 101325 101324.83 101324.06
U   max/avg/min : 0.42817034 0.14171978 0
Prg max-min : 0.93503861
 
sngrad(rho) :-8.901136e-05 -0.0002003414 -0.0003481047
 
Iteration Number = 853

DILUPBiCG:  Solving for Ux, Initial residual = 3.1947032e-05, Final residual = 9.3361961e-10, No Iterations 2
DILUPBiCG:  Solving for Uy, Initial residual = 0.010469831, Final residual = 2.2954847e-08, No Iterations 3
DILUPBiCG:  Solving for Uz, Initial residual = 4.4784269e-05, Final residual = 5.2344404e-09, No Iterations 2
DILUPBiCG:  Solving for h, Initial residual = 6.9326494e-06, Final residual = 3.6362362e-09, No Iterations 5
GAMG:  Solving for p_rgh, Initial residual = 1.2311754e-05, Final residual = 4.7649643e-08, No Iterations 3
time step continuity errors : sum local = 1.4030488e-07, global = -3.2974973e-08, cumulative = 4.399728e-05
ExecutionTime = 97.09 s  ClockTime = 97 s
Inflow      : 3.117134e-05 [kg/s]
Outflow     : 3.1171312e-05 [kg/s]
EnergyInflow  : 9.2099526 [W]
EnergyOutflow : 9.2462739 [W]
EnergyBalance : 0.036321294 [W]
rho max/avg/min : 1.2016472 1.180553 1.1377207
T   max/avg/min : 310.14839 299.02596 293.68714
P   max/avg/min : 101324.91 101316.16 101307.41
Prg max/avg/min : 101325 101324.83 101324.06
U   max/avg/min : 0.42820357 0.14173007 0
Prg max-min : 0.93503715
 
sngrad(rho) :-0.00011211417 -0.00019998503 -0.00034090509
 
Iteration Number = 854

DILUPBiCG:  Solving for Ux, Initial residual = 3.0865929e-05, Final residual = 7.0739891e-10, No Iterations 2
DILUPBiCG:  Solving for Uy, Initial residual = 0.010649309, Final residual = 1.8237541e-08, No Iterations 3
DILUPBiCG:  Solving for Uz, Initial residual = 4.4616271e-05, Final residual = 5.203605e-09, No Iterations 2
DILUPBiCG:  Solving for h, Initial residual = 6.4762378e-06, Final residual = 3.2034535e-09, No Iterations 5
GAMG:  Solving for p_rgh, Initial residual = 1.1828542e-05, Final residual = 3.2535716e-08, No Iterations 3
time step continuity errors : sum local = 1.0231361e-07, global = -3.214662e-08, cumulative = 4.3965134e-05
ExecutionTime = 97.11 s  ClockTime = 97 s
Inflow      : 3.1171741e-05 [kg/s]
Outflow     : 3.1171714e-05 [kg/s]
EnergyInflow  : 9.2100713 [W]
EnergyOutflow : 9.2463931 [W]
EnergyBalance : 0.036321792 [W]
rho max/avg/min : 1.2016472 1.1805531 1.1377207
T   max/avg/min : 310.14837 299.02595 293.68714
P   max/avg/min : 101324.91 101316.16 101307.41
Prg max/avg/min : 101325 101324.83 101324.06
U   max/avg/min : 0.42823665 0.14174032 0
Prg max-min : 0.93503632
 
sngrad(rho) :-0.00012540568 -0.00019987135 -0.0003342075
 
Iteration Number = 855

DILUPBiCG:  Solving for Ux, Initial residual = 3.1881372e-05, Final residual = 9.9165516e-10, No Iterations 2
DILUPBiCG:  Solving for Uy, Initial residual = 0.010438104, Final residual = 7.148043e-06, No Iterations 2
DILUPBiCG:  Solving for Uz, Initial residual = 4.4395407e-05, Final residual = 5.1930822e-09, No Iterations 2
DILUPBiCG:  Solving for h, Initial residual = 6.1292032e-06, Final residual = 2.9684381e-09, No Iterations 5
GAMG:  Solving for p_rgh, Initial residual = 1.1394194e-05, Final residual = 4.4857212e-08, No Iterations 3
time step continuity errors : sum local = 1.3476911e-07, global = -3.1760509e-08, cumulative = 4.3933373e-05
ExecutionTime = 97.15 s  ClockTime = 97 s
Inflow      : 3.1172142e-05 [kg/s]
Outflow     : 3.1172116e-05 [kg/s]
EnergyInflow  : 9.2101897 [W]
EnergyOutflow : 9.2465119 [W]
EnergyBalance : 0.036322206 [W]
rho max/avg/min : 1.2016472 1.1805531 1.1377208
T   max/avg/min : 310.14836 299.02593 293.68714
P   max/avg/min : 101324.91 101316.16 101307.41
Prg max/avg/min : 101325 101324.83 101324.06
U   max/avg/min : 0.42826958 0.14175053 0
Prg max-min : 0.93503612
 
sngrad(rho) :-0.00013123108 -0.00019983081 -0.00032808353
 
Iteration Number = 856

DILUPBiCG:  Solving for Ux, Initial residual = 3.0589322e-05, Final residual = 7.029919e-10, No Iterations 2
DILUPBiCG:  Solving for Uy, Initial residual = 0.010558155, Final residual = 1.247294e-06, No Iterations 2
DILUPBiCG:  Solving for Uz, Initial residual = 4.4225707e-05, Final residual = 5.1604259e-09, No Iterations 2
DILUPBiCG:  Solving for h, Initial residual = 5.8351829e-06, Final residual = 2.9220862e-09, No Iterations 5
GAMG:  Solving for p_rgh, Initial residual = 1.0991197e-05, Final residual = 3.3508628e-08, No Iterations 3
time step continuity errors : sum local = 1.0299328e-07, global = -3.4601443e-08, cumulative = 4.3898772e-05
ExecutionTime = 97.17 s  ClockTime = 97 s
Inflow      : 3.1172545e-05 [kg/s]
Outflow     : 3.1172516e-05 [kg/s]
EnergyInflow  : 9.2103088 [W]
EnergyOutflow : 9.2466307 [W]
EnergyBalance : 0.036321851 [W]
rho max/avg/min : 1.2016472 1.1805532 1.1377208
T   max/avg/min : 310.14835 299.02592 293.68714
P   max/avg/min : 101324.91 101316.16 101307.41
Prg max/avg/min : 101325 101324.83 101324.06
U   max/avg/min : 0.42830237 0.14176069 0
Prg max-min : 0.93503547
 
sngrad(rho) :-0.00013263036 -0.00019986316 -0.00032257533
 
Iteration Number = 857

DILUPBiCG:  Solving for Ux, Initial residual = 3.1506477e-05, Final residual = 9.6238329e-10, No Iterations 2
DILUPBiCG:  Solving for Uy, Initial residual = 0.010377951, Final residual = 1.3509434e-06, No Iterations 2
DILUPBiCG:  Solving for Uz, Initial residual = 4.4015827e-05, Final residual = 5.1432464e-09, No Iterations 2
DILUPBiCG:  Solving for h, Initial residual = 5.5785391e-06, Final residual = 2.7347742e-09, No Iterations 5
GAMG:  Solving for p_rgh, Initial residual = 1.0628168e-05, Final residual = 3.4824995e-08, No Iterations 3
time step continuity errors : sum local = 1.0759322e-07, global = -3.2741606e-08, cumulative = 4.386603e-05
ExecutionTime = 97.21 s  ClockTime = 97 s
Inflow      : 3.1172944e-05 [kg/s]
Outflow     : 3.1172916e-05 [kg/s]
EnergyInflow  : 9.2104265 [W]
EnergyOutflow : 9.2467492 [W]
EnergyBalance : 0.036322677 [W]
rho max/avg/min : 1.2016472 1.1805533 1.1377209
T   max/avg/min : 310.14833 299.0259 293.68714
P   max/avg/min : 101324.91 101316.16 101307.41
Prg max/avg/min : 101325 101324.83 101324.06
U   max/avg/min : 0.42833501 0.14177081 0
Prg max-min : 0.93503469
 
sngrad(rho) :-0.00013513817 -0.00019991978 -0.00031766992
 
Iteration Number = 858

DILUPBiCG:  Solving for Ux, Initial residual = 3.0503318e-05, Final residual = 7.4876466e-10, No Iterations 2
DILUPBiCG:  Solving for Uy, Initial residual = 0.010159361, Final residual = 1.3306119e-06, No Iterations 2
DILUPBiCG:  Solving for Uz, Initial residual = 4.3820479e-05, Final residual = 5.1241453e-09, No Iterations 2
DILUPBiCG:  Solving for h, Initial residual = 5.3520684e-06, Final residual = 2.6220096e-09, No Iterations 5
GAMG:  Solving for p_rgh, Initial residual = 1.0275504e-05, Final residual = 3.720022e-08, No Iterations 3
time step continuity errors : sum local = 1.1190573e-07, global = -2.9934564e-08, cumulative = 4.3836096e-05
ExecutionTime = 97.24 s  ClockTime = 97 s
Inflow      : 3.117334e-05 [kg/s]
Outflow     : 3.1173315e-05 [kg/s]
EnergyInflow  : 9.2105436 [W]
EnergyOutflow : 9.2468674 [W]
EnergyBalance : 0.036323762 [W]
rho max/avg/min : 1.2016472 1.1805533 1.137721
T   max/avg/min : 310.1483 299.02589 293.68714
P   max/avg/min : 101324.91 101316.16 101307.41
Prg max/avg/min : 101325 101324.83 101324.06
U   max/avg/min : 0.4283675 0.14178088 0
Prg max-min : 0.93503354
 
sngrad(rho) :-0.000138381 -0.00020001209 -0.00031332294
 
Iteration Number = 859

DILUPBiCG:  Solving for Ux, Initial residual = 3.0639487e-05, Final residual = 8.1861502e-10, No Iterations 2
DILUPBiCG:  Solving for Uy, Initial residual = 0.010746892, Final residual = 2.4044662e-06, No Iterations 2
DILUPBiCG:  Solving for Uz, Initial residual = 4.3629295e-05, Final residual = 5.0953042e-09, No Iterations 2
DILUPBiCG:  Solving for h, Initial residual = 5.1489217e-06, Final residual = 2.4575714e-09, No Iterations 5
GAMG:  Solving for p_rgh, Initial residual = 9.9350154e-06, Final residual = 3.4246911e-08, No Iterations 3
time step continuity errors : sum local = 1.0616141e-07, global = -3.0729566e-08, cumulative = 4.3805366e-05
ExecutionTime = 97.27 s  ClockTime = 97 s
Inflow      : 3.1173738e-05 [kg/s]
Outflow     : 3.1173712e-05 [kg/s]
EnergyInflow  : 9.2106612 [W]
EnergyOutflow : 9.2469852 [W]
EnergyBalance : 0.036323981 [W]
rho max/avg/min : 1.2016472 1.1805534 1.1377211
T   max/avg/min : 310.14827 299.02587 293.68714
P   max/avg/min : 101324.91 101316.16 101307.41
Prg max/avg/min : 101325 101324.83 101324.06
U   max/avg/min : 0.42839986 0.14179091 0
Prg max-min : 0.93503197
 
sngrad(rho) :-0.00013988126 -0.00020012486 -0.00030946693
 

SIMPLE solution converged in 859 iterations

End

