/*---------------------------------------------------------------------------*\
| =========                 |                                                 |
| \\      /  F ield         | OpenFOAM: The Open Source CFD Toolbox           |
|  \\    /   O peration     | Version:  3.0.1                                 |
|   \\  /    A nd           | Web:      www.OpenFOAM.org                      |
|    \\/     M anipulation  |                                                 |
\*---------------------------------------------------------------------------*/
Build  : 3.0.1-119cac7e8750
Exec   : PupoCHTFOAM
Date   : Jun 28 2016
Time   : 11:07:14
Host   : "SC500"
PID    : 27142
Case   : /home/pedro/Documents/ThesisProject/OpenFoam/validation1rod/CHT
nProcs : 1
sigFpe : Enabling floating point exception trapping (FOAM_SIGFPE).
fileModificationChecking : Monitoring run-time modified files using timeStampMaster
allowSystemOperations : Allowing user-supplied system call operations

// * * * * * * * * * * * * * * * * * * * * * * * * * * * * * * * * * * * * * //
Create time

Create fluid mesh for region fluid for time = 0

Create solid mesh for region cilcen for time = 0

*** Reading fluid mesh thermophysical properties for region fluid

    Adding to thermoFluid

Selecting thermodynamics package 
{
    type            heRhoThermo;
    mixture         pureMixture;
    transport       sutherland;
    thermo          hConst;
    equationOfState perfectGas;
    specie          specie;
    energy          sensibleEnthalpy;
}

    Adding to rhoFluid

    Adding to UFluid

    Adding to phiFluid

    Adding to gFluid

    Adding to hRefFluid

    Adding to ghFluid

    Adding to ghfFluid

    Adding to turbulence

Selecting turbulence model type laminar
Selecting radiationModel fvDOM
Selecting absorptionEmissionModel constantAbsorptionEmission
Selecting scatterModel none
fvDOM  nSolutionD = 3 
fvDOM : Allocated 4 rays with average orientation:
	I0 : omega : 	3.1415927
	I1 : omega : 	3.1415927
	I2 : omega : 	3.1415927
	I3 : omega : 	3.1415927

    Adding MRF

No MRF models present

    Adding fvOptions

No finite volume options present


Initial Solution for fluid
ExecutionTime = 0.07 s  ClockTime = 1 s
fluid  Inflow      : -0 [kg/s]
fluid  Outflow     : 0 [kg/s]
fluid  EnergyInflow  : -0 [W]
fluid  EnergyOutflow : 0 [W]
fluid  rho max/avg/min : 1.2016442 1.2015404 1.2014366
fluid  T   max/avg/min : 293.7 293.7 293.7
fluid  P   max/avg/min : 101324.82 101316.07 101307.32
fluid  Prg max/avg/min : 101324.91 101324.91 101324.91
fluid  U   max/avg/min : 0 0 0
fluid  K average:  0.026451611
fluid  nu average: 1.5108442e-05
*** Reading solid mesh thermophysical properties for region cilcen

    Adding to thermos

Selecting thermodynamics package 
{
    type            heSolidThermo;
    mixture         pureMixture;
    transport       constIso;
    thermo          hConst;
    equationOfState rhoConst;
    specie          specie;
    energy          sensibleEnthalpy;
}

    Adding to radiations

Selecting radiationModel none
    Adding fvOptions

Creating finite volume options from "system/fvOptions"

Selecting finite volume options model type scalarSemiImplicitSource
    Source: source1
    - selecting cells using cellZone cilcen
    - selected 100 cell(s) with volume 6.6935611e-07
Time = 1


Solving for fluid region fluid
DILUPBiCG:  Solving for Ux, Initial residual = 0.86932376, Final residual = 0.00024728658, No Iterations 1
DILUPBiCG:  Solving for Uy, Initial residual = 0.22432726, Final residual = 4.6115773e-05, No Iterations 1
DILUPBiCG:  Solving for Uz, Initial residual = 1, Final residual = 0.00035792441, No Iterations 1
DILUPBiCG:  Solving for h, Initial residual = 1, Final residual = 5.8723745e-05, No Iterations 1
Radiation solver iter: 0
GAMG:  Solving for ILambda_0_0, Initial residual = 1, Final residual = 7.929945e-17, No Iterations 1
GAMG:  Solving for ILambda_1_0, Initial residual = 1, Final residual = 1.1673309e-15, No Iterations 1
GAMG:  Solving for ILambda_2_0, Initial residual = 1, Final residual = 3.1570674e-16, No Iterations 1
GAMG:  Solving for ILambda_3_0, Initial residual = 1, Final residual = 7.7011661e-17, No Iterations 1
Radiation solver iter: 1
GAMG:  Solving for ILambda_0_0, Initial residual = 0.00038395644, Final residual = 0.00038395644, No Iterations 5
GAMG:  Solving for ILambda_1_0, Initial residual = 0.0044669594, Final residual = 0.0044669594, No Iterations 5
GAMG:  Solving for ILambda_2_0, Initial residual = 1.1791262e-11, Final residual = 1.1791262e-11, No Iterations 0
GAMG:  Solving for ILambda_3_0, Initial residual = 2.8762918e-12, Final residual = 2.8762918e-12, No Iterations 0
Radiation solver iter: 2
GAMG:  Solving for ILambda_0_0, Initial residual = 1, Final residual = 4.8307423e-15, No Iterations 1
GAMG:  Solving for ILambda_1_0, Initial residual = 1, Final residual = 4.0953129e-14, No Iterations 1
Radiation solver iter: 3
GAMG:  Solving for ILambda_0_0, Initial residual = 1.8042238e-10, Final residual = 1.8042238e-10, No Iterations 0
GAMG:  Solving for ILambda_1_0, Initial residual = 1.5295497e-09, Final residual = 1.5295497e-09, No Iterations 0
GAMG:  Solving for p_rgh, Initial residual = 0.99999996, Final residual = 0.0037120066, No Iterations 2
time step continuity errors : sum local = 0.0042666547, global = -0.00049563375, cumulative = -0.00049563375
Min/max rho:1.1061709 1.2017805
ExecutionTime = 0.18 s  ClockTime = 1 s
fluid  Inflow      : 2.5312378e-07 [kg/s]
fluid  Outflow     : -1.6023447e-07 [kg/s]
fluid  EnergyInflow  : 0.07478851 [W]
fluid  EnergyOutflow : -0.04734323 [W]
fluid  rho max/avg/min : 1.2017805 1.1972213 1.1266565
fluid  T   max/avg/min : 313.1939 294.79789 293.66667
fluid  P   max/avg/min : 101324.91 101316.17 101307.41
fluid  Prg max/avg/min : 101325.02 101324.98 101323.91
fluid  U   max/avg/min : 0.075145606 0.00012603923 -0.065254263
fluid  K average:  0.02652736
fluid  nu average: 1.5209928e-05

Solving for solid region cilcen
DICPCG:  Solving for h, Initial residual = 1, Final residual = 9.2005301e-17, No Iterations 1
Tcilcen  max/avg/min : 313.38919 313.38899 313.38781
ExecutionTime = 0.18 s  ClockTime = 1 s

Time = 2


Solving for fluid region fluid
DILUPBiCG:  Solving for Ux, Initial residual = 0.28360371, Final residual = 0.00039753669, No Iterations 1
DILUPBiCG:  Solving for Uy, Initial residual = 0.25603, Final residual = 0.00028003325, No Iterations 1
DILUPBiCG:  Solving for Uz, Initial residual = 0.3741749, Final residual = 0.00076461314, No Iterations 1
DILUPBiCG:  Solving for h, Initial residual = 0.12467425, Final residual = 1.9105736e-05, No Iterations 1
GAMG:  Solving for p_rgh, Initial residual = 0.2740782, Final residual = 0.0012077604, No Iterations 3
time step continuity errors : sum local = 0.00088265952, global = 0.00040511801, cumulative = -9.0515739e-05
Min/max rho:1.1260227 1.2017347
ExecutionTime = 0.25 s  ClockTime = 1 s
fluid  Inflow      : -4.6987011e-07 [kg/s]
fluid  Outflow     : -1.3200193e-07 [kg/s]
fluid  EnergyInflow  : -0.13882885 [W]
fluid  EnergyOutflow : -0.038992624 [W]
fluid  rho max/avg/min : 1.2017347 1.1957025 1.1315277
fluid  T   max/avg/min : 311.84645 295.18095 293.67814
fluid  P   max/avg/min : 101324.91 101316.17 101307.41
fluid  Prg max/avg/min : 101325.01 101324.96 101323.98
fluid  U   max/avg/min : 0.04032752 -5.9888402e-06 -0.058789927
fluid  K average:  0.026553847
fluid  nu average: 1.5245216e-05

Solving for solid region cilcen
DICPCG:  Solving for h, Initial residual = 0.99997807, Final residual = 1.77263e-16, No Iterations 1
Tcilcen  max/avg/min : 312.04415 312.0441 312.04171
ExecutionTime = 0.25 s  ClockTime = 1 s

Time = 3


Solving for fluid region fluid
DILUPBiCG:  Solving for Ux, Initial residual = 0.15050825, Final residual = 2.5330794e-07, No Iterations 2
DILUPBiCG:  Solving for Uy, Initial residual = 0.14349519, Final residual = 1.5265548e-07, No Iterations 2
DILUPBiCG:  Solving for Uz, Initial residual = 0.38780952, Final residual = 0.001153347, No Iterations 1
DILUPBiCG:  Solving for h, Initial residual = 0.063919694, Final residual = 2.0436642e-05, No Iterations 1
GAMG:  Solving for p_rgh, Initial residual = 0.1885222, Final residual = 0.00064036974, No Iterations 3
time step continuity errors : sum local = 0.00045963783, global = -2.7751146e-05, cumulative = -0.00011826688
Min/max rho:1.130879 1.2017277
ExecutionTime = 0.31 s  ClockTime = 1 s
fluid  Inflow      : -1.0250219e-07 [kg/s]
fluid  Outflow     : -1.2564663e-07 [kg/s]
fluid  EnergyInflow  : -0.030285521 [W]
fluid  EnergyOutflow : -0.037109153 [W]
fluid  rho max/avg/min : 1.2017277 1.1945901 1.1346282
fluid  T   max/avg/min : 310.99436 295.46081 293.67985
fluid  P   max/avg/min : 101324.92 101316.16 101307.41
fluid  Prg max/avg/min : 101325.01 101324.95 101324.02
fluid  U   max/avg/min : 0.045398083 -1.1270304e-05 -0.045971153
fluid  K average:  0.026573207
fluid  nu average: 1.5270994e-05

Solving for solid region cilcen
DICPCG:  Solving for h, Initial residual = 0.99990743, Final residual = 1.1881238e-16, No Iterations 1
Tcilcen  max/avg/min : 311.19266 311.19259 311.18881
ExecutionTime = 0.31 s  ClockTime = 1 s

Time = 4


Solving for fluid region fluid
DILUPBiCG:  Solving for Ux, Initial residual = 0.22449603, Final residual = 0.001405171, No Iterations 1
DILUPBiCG:  Solving for Uy, Initial residual = 0.21499206, Final residual = 0.0011897354, No Iterations 1
DILUPBiCG:  Solving for Uz, Initial residual = 0.23899772, Final residual = 0.0011420923, No Iterations 1
DILUPBiCG:  Solving for h, Initial residual = 0.041651819, Final residual = 3.2767288e-05, No Iterations 1
GAMG:  Solving for p_rgh, Initial residual = 0.15642651, Final residual = 0.00089368342, No Iterations 2
time step continuity errors : sum local = 0.00075836254, global = -0.00018478303, cumulative = -0.00030304991
Min/max rho:1.1339741 1.2017187
ExecutionTime = 0.37 s  ClockTime = 1 s
fluid  Inflow      : 3.6803934e-08 [kg/s]
fluid  Outflow     : -1.17305e-07 [kg/s]
fluid  EnergyInflow  : 0.010874172 [W]
fluid  EnergyOutflow : -0.034638031 [W]
fluid  rho max/avg/min : 1.2017187 1.1936845 1.1368383
fluid  T   max/avg/min : 310.38991 295.68834 293.68205
fluid  P   max/avg/min : 101324.91 101316.16 101307.41
fluid  Prg max/avg/min : 101325.01 101324.94 101324.05
fluid  U   max/avg/min : 0.032167721 1.3153472e-05 -0.037291404
fluid  K average:  0.026588951
fluid  nu average: 1.5291943e-05

Solving for solid region cilcen
DICPCG:  Solving for h, Initial residual = 0.99977435, Final residual = 1.2965165e-16, No Iterations 1
Tcilcen  max/avg/min : 310.58859 310.58848 310.58321
ExecutionTime = 0.37 s  ClockTime = 1 s

Time = 5


Solving for fluid region fluid
DILUPBiCG:  Solving for Ux, Initial residual = 0.23148594, Final residual = 0.0018182068, No Iterations 1
DILUPBiCG:  Solving for Uy, Initial residual = 0.2189255, Final residual = 0.0015013846, No Iterations 1
DILUPBiCG:  Solving for Uz, Initial residual = 0.25052734, Final residual = 0.00095951811, No Iterations 1
DILUPBiCG:  Solving for h, Initial residual = 0.031048949, Final residual = 6.9798469e-05, No Iterations 1
GAMG:  Solving for p_rgh, Initial residual = 0.14307755, Final residual = 0.00044573993, No Iterations 3
time step continuity errors : sum local = 0.00043027888, global = 0.00024285974, cumulative = -6.019017e-05
Min/max rho:1.1361807 1.2017049
ExecutionTime = 0.43 s  ClockTime = 1 s
fluid  Inflow      : -3.0661584e-07 [kg/s]
fluid  Outflow     : -1.0407096e-07 [kg/s]
fluid  EnergyInflow  : -0.090593392 [W]
fluid  EnergyOutflow : -0.030720079 [W]
fluid  rho max/avg/min : 1.2017049 1.1929066 1.1385185
fluid  T   max/avg/min : 309.93207 295.88363 293.68542
fluid  P   max/avg/min : 101324.91 101316.16 101307.41
fluid  Prg max/avg/min : 101325 101324.94 101324.08
fluid  U   max/avg/min : 0.026104085 1.6940301e-05 -0.044323547
fluid  K average:  0.026602467
fluid  nu average: 1.5309918e-05

Solving for solid region cilcen
DICPCG:  Solving for h, Initial residual = 0.9995582, Final residual = 8.467284e-17, No Iterations 1
Tcilcen  max/avg/min : 310.13101 310.13086 310.12401
ExecutionTime = 0.43 s  ClockTime = 1 s

Time = 6


Solving for fluid region fluid
DILUPBiCG:  Solving for Ux, Initial residual = 0.2680173, Final residual = 0.00085606671, No Iterations 1
DILUPBiCG:  Solving for Uy, Initial residual = 0.246639, Final residual = 0.00063894254, No Iterations 1
DILUPBiCG:  Solving for Uz, Initial residual = 0.23635824, Final residual = 0.00043762585, No Iterations 1
DILUPBiCG:  Solving for h, Initial residual = 0.025010537, Final residual = 2.5333004e-05, No Iterations 1
GAMG:  Solving for p_rgh, Initial residual = 0.09687695, Final residual = 0.00045722683, No Iterations 2
time step continuity errors : sum local = 0.00048260064, global = 9.5680267e-05, cumulative = 3.5490098e-05
Min/max rho:1.1378579 1.2016962
ExecutionTime = 0.49 s  ClockTime = 1 s
fluid  Inflow      : -1.631226e-07 [kg/s]
fluid  Outflow     : -8.3325315e-08 [kg/s]
fluid  EnergyInflow  : -0.048196562 [W]
fluid  EnergyOutflow : -0.024580985 [W]
fluid  rho max/avg/min : 1.2016962 1.1922143 1.1398515
fluid  T   max/avg/min : 309.56985 296.05733 293.68754
fluid  P   max/avg/min : 101324.91 101316.16 101307.41
fluid  Prg max/avg/min : 101325 101324.93 101324.1
fluid  U   max/avg/min : 0.021311614 3.4580247e-05 -0.043393433
fluid  K average:  0.026614491
fluid  nu average: 1.5325903e-05

Solving for solid region cilcen
DICPCG:  Solving for h, Initial residual = 0.99924057, Final residual = 2.9453269e-16, No Iterations 1
Tcilcen  max/avg/min : 309.76899 309.7688 309.76026
ExecutionTime = 0.5 s  ClockTime = 1 s

Time = 7


Solving for fluid region fluid
DILUPBiCG:  Solving for Ux, Initial residual = 0.23959859, Final residual = 0.00063535766, No Iterations 1
DILUPBiCG:  Solving for Uy, Initial residual = 0.21582007, Final residual = 0.00048299066, No Iterations 1
DILUPBiCG:  Solving for Uz, Initial residual = 0.18725406, Final residual = 0.00044707222, No Iterations 1
DILUPBiCG:  Solving for h, Initial residual = 0.020857098, Final residual = 5.4953407e-05, No Iterations 1
GAMG:  Solving for p_rgh, Initial residual = 0.063979804, Final residual = 0.00014746994, No Iterations 2
time step continuity errors : sum local = 0.00016927955, global = -3.357364e-05, cumulative = 1.9164575e-06
Min/max rho:1.1391881 1.2016883
ExecutionTime = 0.56 s  ClockTime = 1 s
fluid  Inflow      : -2.5285199e-08 [kg/s]
fluid  Outflow     : -5.3285595e-08 [kg/s]
fluid  EnergyInflow  : -0.0074708206 [W]
fluid  EnergyOutflow : -0.015693709 [W]
fluid  rho max/avg/min : 1.2016883 1.1915871 1.1409331
fluid  T   max/avg/min : 309.27647 296.21467 293.68949
fluid  P   max/avg/min : 101324.91 101316.16 101307.4
fluid  Prg max/avg/min : 101325 101324.93 101324.11
fluid  U   max/avg/min : 0.019053103 8.4005146e-05 -0.046019834
fluid  K average:  0.026625383
fluid  nu average: 1.5340382e-05

Solving for solid region cilcen
DICPCG:  Solving for h, Initial residual = 0.99878942, Final residual = 1.1023399e-16, No Iterations 1
Tcilcen  max/avg/min : 309.47578 309.47554 309.4652
ExecutionTime = 0.56 s  ClockTime = 1 s

Time = 8


Solving for fluid region fluid
DILUPBiCG:  Solving for Ux, Initial residual = 0.23201658, Final residual = 0.00046863974, No Iterations 1
DILUPBiCG:  Solving for Uy, Initial residual = 0.21046735, Final residual = 0.00033270283, No Iterations 1
DILUPBiCG:  Solving for Uz, Initial residual = 0.19390857, Final residual = 0.00029153367, No Iterations 1
DILUPBiCG:  Solving for h, Initial residual = 0.01785084, Final residual = 3.1700894e-05, No Iterations 1
GAMG:  Solving for p_rgh, Initial residual = 0.056044898, Final residual = 0.00023337095, No Iterations 2
time step continuity errors : sum local = 0.00029122917, global = 6.8738387e-05, cumulative = 7.0654844e-05
Min/max rho:1.140268 1.2016777
ExecutionTime = 0.62 s  ClockTime = 1 s
fluid  Inflow      : -7.0108065e-08 [kg/s]
fluid  Outflow     : -1.2780292e-08 [kg/s]
fluid  EnergyInflow  : -0.020714283 [W]
fluid  EnergyOutflow : -0.0037117538 [W]
fluid  rho max/avg/min : 1.2016777 1.1910083 1.1418304
fluid  T   max/avg/min : 309.03355 296.35981 293.69207
fluid  P   max/avg/min : 101324.91 101316.16 101307.4
fluid  Prg max/avg/min : 101325 101324.92 101324.12
fluid  U   max/avg/min : 0.016022732 0.00013854007 -0.043477573
fluid  K average:  0.026635431
fluid  nu average: 1.5353736e-05

Solving for solid region cilcen
DICPCG:  Solving for h, Initial residual = 0.99817827, Final residual = 1.9779253e-16, No Iterations 1
Tcilcen  max/avg/min : 309.23299 309.23269 309.22046
ExecutionTime = 0.62 s  ClockTime = 1 s

Time = 9


Solving for fluid region fluid
DILUPBiCG:  Solving for Ux, Initial residual = 0.19752671, Final residual = 0.00037115135, No Iterations 1
DILUPBiCG:  Solving for Uy, Initial residual = 0.17877754, Final residual = 0.00026147149, No Iterations 1
DILUPBiCG:  Solving for Uz, Initial residual = 0.1782426, Final residual = 0.00024383247, No Iterations 1
DILUPBiCG:  Solving for h, Initial residual = 0.015570534, Final residual = 3.8901734e-05, No Iterations 1
GAMG:  Solving for p_rgh, Initial residual = 0.041543, Final residual = 0.00022389077, No Iterations 2
time step continuity errors : sum local = 0.00030514092, global = 4.6627051e-05, cumulative = 0.0001172819
Min/max rho:1.1411639 1.2016685
ExecutionTime = 0.68 s  ClockTime = 1 s
fluid  Inflow      : -3.2925246e-10 [kg/s]
fluid  Outflow     : 3.855768e-08 [kg/s]
fluid  EnergyInflow  : -9.728163e-05 [W]
fluid  EnergyOutflow : 0.011473585 [W]
fluid  rho max/avg/min : 1.2016685 1.1904696 1.1425832
fluid  T   max/avg/min : 308.83008 296.49492 293.69431
fluid  P   max/avg/min : 101324.91 101316.16 101307.4
fluid  Prg max/avg/min : 101325 101324.92 101324.13
fluid  U   max/avg/min : 0.014419397 0.00019961904 -0.041454195
fluid  K average:  0.026644784
fluid  nu average: 1.5366168e-05

Solving for solid region cilcen
DICPCG:  Solving for h, Initial residual = 0.99735355, Final residual = 2.0201898e-16, No Iterations 1
Tcilcen  max/avg/min : 309.02962 309.02927 309.01503
ExecutionTime = 0.68 s  ClockTime = 1 s

Time = 10


Solving for fluid region fluid
DILUPBiCG:  Solving for Ux, Initial residual = 0.1821792, Final residual = 0.00028056643, No Iterations 1
DILUPBiCG:  Solving for Uy, Initial residual = 0.16323966, Final residual = 0.00019459895, No Iterations 1
DILUPBiCG:  Solving for Uz, Initial residual = 0.16556044, Final residual = 0.00012527673, No Iterations 1
DILUPBiCG:  Solving for h, Initial residual = 0.013844086, Final residual = 4.1176346e-05, No Iterations 1
Radiation solver iter: 0
GAMG:  Solving for ILambda_0_0, Initial residual = 0.99999665, Final residual = 1.0771049e-15, No Iterations 1
GAMG:  Solving for ILambda_1_0, Initial residual = 0.99999665, Final residual = 1.2398625e-14, No Iterations 1
GAMG:  Solving for ILambda_2_0, Initial residual = 0.33179156, Final residual = 1.3430713e-11, No Iterations 1
GAMG:  Solving for ILambda_3_0, Initial residual = 0.33179156, Final residual = 3.1290876e-12, No Iterations 1
Radiation solver iter: 1
GAMG:  Solving for ILambda_0_0, Initial residual = 8.3552917e-12, Final residual = 8.3552917e-12, No Iterations 0
GAMG:  Solving for ILambda_1_0, Initial residual = 9.6178306e-11, Final residual = 9.6178306e-11, No Iterations 0
GAMG:  Solving for ILambda_2_0, Initial residual = 3.84295e-11, Final residual = 3.84295e-11, No Iterations 0
GAMG:  Solving for ILambda_3_0, Initial residual = 8.9533052e-12, Final residual = 8.9533052e-12, No Iterations 0
GAMG:  Solving for p_rgh, Initial residual = 0.03792033, Final residual = 0.00023321238, No Iterations 2
time step continuity errors : sum local = 0.000336354, global = 9.9327529e-05, cumulative = 0.00021660942
Min/max rho:1.1419155 1.2016601
ExecutionTime = 0.76 s  ClockTime = 1 s
fluid  Inflow      : 1.404405e-08 [kg/s]
fluid  Outflow     : 9.6883149e-08 [kg/s]
fluid  EnergyInflow  : 0.0041494858 [W]
fluid  EnergyOutflow : 0.028726279 [W]
fluid  rho max/avg/min : 1.2016601 1.189963 1.1432223
fluid  T   max/avg/min : 308.65761 296.62198 293.69638
fluid  P   max/avg/min : 101324.91 101316.16 101307.4
fluid  Prg max/avg/min : 101325 101324.91 101324.14
fluid  U   max/avg/min : 0.014753306 0.00026183931 -0.037138843
fluid  K average:  0.02665358
fluid  nu average: 1.5377859e-05

Solving for solid region cilcen
DICPCG:  Solving for h, Initial residual = 0.98879473, Final residual = 9.2568868e-17, No Iterations 1
Tcilcen  max/avg/min : 308.97278 308.97237 308.95642
ExecutionTime = 0.76 s  ClockTime = 1 s

Time = 11


Solving for fluid region fluid
DILUPBiCG:  Solving for Ux, Initial residual = 0.16367616, Final residual = 0.0001734517, No Iterations 1
DILUPBiCG:  Solving for Uy, Initial residual = 0.14633081, Final residual = 0.00012077395, No Iterations 1
DILUPBiCG:  Solving for Uz, Initial residual = 0.14054535, Final residual = 0.00017860852, No Iterations 1
DILUPBiCG:  Solving for h, Initial residual = 0.0099864232, Final residual = 4.3976475e-05, No Iterations 1
GAMG:  Solving for p_rgh, Initial residual = 0.028365182, Final residual = 0.00024094934, No Iterations 2
time step continuity errors : sum local = 0.00037960338, global = 9.9570075e-06, cumulative = 0.00022656643
Min/max rho:1.1421259 1.2016548
ExecutionTime = 0.81 s  ClockTime = 1 s
fluid  Inflow      : 1.5816082e-07 [kg/s]
fluid  Outflow     : 1.6646496e-07 [kg/s]
fluid  EnergyInflow  : 0.046730543 [W]
fluid  EnergyOutflow : 0.049307574 [W]
fluid  rho max/avg/min : 1.2016548 1.1894647 1.1434369
fluid  T   max/avg/min : 308.59978 296.74727 293.69744
fluid  P   max/avg/min : 101324.91 101316.16 101307.4
fluid  Prg max/avg/min : 101325 101324.91 101324.15
fluid  U   max/avg/min : 0.013380286 0.00033111401 -0.035084199
fluid  K average:  0.026662249
fluid  nu average: 1.5389398e-05

Solving for solid region cilcen
DICPCG:  Solving for h, Initial residual = 0.98728861, Final residual = 1.3836425e-16, No Iterations 1
Tcilcen  max/avg/min : 308.915 308.91453 308.89662
ExecutionTime = 0.81 s  ClockTime = 1 s

Time = 12


Solving for fluid region fluid
DILUPBiCG:  Solving for Ux, Initial residual = 0.13821244, Final residual = 0.00010884799, No Iterations 1
DILUPBiCG:  Solving for Uy, Initial residual = 0.1230574, Final residual = 7.2989963e-05, No Iterations 1
DILUPBiCG:  Solving for Uz, Initial residual = 0.1359708, Final residual = 7.7614856e-05, No Iterations 1
DILUPBiCG:  Solving for h, Initial residual = 0.0090527205, Final residual = 5.0739114e-05, No Iterations 1
GAMG:  Solving for p_rgh, Initial residual = 0.026443457, Final residual = 2.8156867e-05, No Iterations 3
time step continuity errors : sum local = 4.6740393e-05, global = 3.8840984e-05, cumulative = 0.00026540742
Min/max rho:1.1423398 1.2016516
ExecutionTime = 0.87 s  ClockTime = 1 s
fluid  Inflow      : 2.0512326e-07 [kg/s]
fluid  Outflow     : 2.3751662e-07 [kg/s]
fluid  EnergyInflow  : 0.06060617 [W]
fluid  EnergyOutflow : 0.070325641 [W]
fluid  rho max/avg/min : 1.2016516 1.1889833 1.1435996
fluid  T   max/avg/min : 308.55595 296.86844 293.69804
fluid  P   max/avg/min : 101324.91 101316.16 101307.4
fluid  Prg max/avg/min : 101325 101324.91 101324.15
fluid  U   max/avg/min : 0.01155666 0.00041925957 -0.031542144
fluid  K average:  0.026670629
fluid  nu average: 1.540056e-05

Solving for solid region cilcen
DICPCG:  Solving for h, Initial residual = 0.98081572, Final residual = 1.2561461e-16, No Iterations 1
Tcilcen  max/avg/min : 308.8712 308.87066 308.85064
ExecutionTime = 0.87 s  ClockTime = 1 s

Time = 13


Solving for fluid region fluid
DILUPBiCG:  Solving for Ux, Initial residual = 0.15244255, Final residual = 0.00014496292, No Iterations 1
DILUPBiCG:  Solving for Uy, Initial residual = 0.13563181, Final residual = 0.00010042151, No Iterations 1
DILUPBiCG:  Solving for Uz, Initial residual = 0.16783301, Final residual = 9.5052387e-05, No Iterations 1
DILUPBiCG:  Solving for h, Initial residual = 0.0083127585, Final residual = 6.1801828e-05, No Iterations 1
GAMG:  Solving for p_rgh, Initial residual = 0.022568821, Final residual = 6.3801853e-05, No Iterations 3
time step continuity errors : sum local = 0.00011493058, global = 1.3513752e-05, cumulative = 0.00027892117
Min/max rho:1.1425022 1.2016494
ExecutionTime = 0.93 s  ClockTime = 1 s
fluid  Inflow      : 3.076789e-07 [kg/s]
fluid  Outflow     : 3.1894936e-07 [kg/s]
fluid  EnergyInflow  : 0.090907484 [W]
fluid  EnergyOutflow : 0.094412929 [W]
fluid  rho max/avg/min : 1.2016494 1.1885192 1.1437137
fluid  T   max/avg/min : 308.52526 296.98532 293.69856
fluid  P   max/avg/min : 101324.91 101316.16 101307.4
fluid  Prg max/avg/min : 101325 101324.9 101324.15
fluid  U   max/avg/min : 0.010637529 0.00051264505 -0.028918564
fluid  K average:  0.026678712
fluid  nu average: 1.541133e-05

Solving for solid region cilcen
DICPCG:  Solving for h, Initial residual = 0.96902017, Final residual = 1.2237487e-16, No Iterations 1
Tcilcen  max/avg/min : 308.84055 308.83993 308.81764
ExecutionTime = 0.93 s  ClockTime = 1 s

Time = 14


Solving for fluid region fluid
DILUPBiCG:  Solving for Ux, Initial residual = 0.12131882, Final residual = 9.4064669e-05, No Iterations 1
DILUPBiCG:  Solving for Uy, Initial residual = 0.10665101, Final residual = 6.1673792e-05, No Iterations 1
DILUPBiCG:  Solving for Uz, Initial residual = 0.16076002, Final residual = 7.3444066e-05, No Iterations 1
DILUPBiCG:  Solving for h, Initial residual = 0.0076566779, Final residual = 7.5018162e-05, No Iterations 1
GAMG:  Solving for p_rgh, Initial residual = 0.02088114, Final residual = 3.2886371e-05, No Iterations 3
time step continuity errors : sum local = 6.2438996e-05, global = 7.0006515e-06, cumulative = 0.00028592182
Min/max rho:1.142616 1.201647
ExecutionTime = 1 s  ClockTime = 1 s
fluid  Inflow      : 4.2202275e-07 [kg/s]
fluid  Outflow     : 4.2786128e-07 [kg/s]
fluid  EnergyInflow  : 0.12469177 [W]
fluid  EnergyOutflow : 0.12662092 [W]
fluid  rho max/avg/min : 1.201647 1.1880699 1.1437851
fluid  T   max/avg/min : 308.5061 297.09856 293.6991
fluid  P   max/avg/min : 101324.91 101316.16 101307.4
fluid  Prg max/avg/min : 101325 101324.9 101324.15
fluid  U   max/avg/min : 0.011441728 0.00061789627 -0.025346894
fluid  K average:  0.026686542
fluid  nu average: 1.5421767e-05

Solving for solid region cilcen
DICPCG:  Solving for h, Initial residual = 0.94502443, Final residual = 1.1392487e-16, No Iterations 1
Tcilcen  max/avg/min : 308.82141 308.82071 308.79599
ExecutionTime = 1 s  ClockTime = 1 s

Time = 15


Solving for fluid region fluid
DILUPBiCG:  Solving for Ux, Initial residual = 0.11599576, Final residual = 0.00011366163, No Iterations 1
DILUPBiCG:  Solving for Uy, Initial residual = 0.10323156, Final residual = 7.7652864e-05, No Iterations 1
DILUPBiCG:  Solving for Uz, Initial residual = 0.16928557, Final residual = 8.0894535e-05, No Iterations 1
DILUPBiCG:  Solving for h, Initial residual = 0.0071102305, Final residual = 2.0456688e-05, No Iterations 2
GAMG:  Solving for p_rgh, Initial residual = 0.019255081, Final residual = 3.5003567e-05, No Iterations 3
time step continuity errors : sum local = 7.066822e-05, global = 4.2243615e-05, cumulative = 0.00032816544
Min/max rho:1.1426873 1.2016463
ExecutionTime = 1.08 s  ClockTime = 2 s
fluid  Inflow      : 5.7694817e-07 [kg/s]
fluid  Outflow     : 6.1217931e-07 [kg/s]
fluid  EnergyInflow  : 0.17046637 [W]
fluid  EnergyOutflow : 0.18111088 [W]
fluid  rho max/avg/min : 1.2016456 1.1876245 1.1438192
fluid  T   max/avg/min : 308.49702 297.21082 293.69987
fluid  P   max/avg/min : 101324.91 101316.16 101307.4
fluid  Prg max/avg/min : 101325 101324.9 101324.15
fluid  U   max/avg/min : 0.012255452 0.00076670938 -0.023045822
fluid  K average:  0.026694304
fluid  nu average: 1.5432113e-05

Solving for solid region cilcen
DICPCG:  Solving for h, Initial residual = 0.87854722, Final residual = 1.6536597e-16, No Iterations 1
Tcilcen  max/avg/min : 308.81235 308.81156 308.78423
ExecutionTime = 1.08 s  ClockTime = 2 s

Time = 16


Solving for fluid region fluid
DILUPBiCG:  Solving for Ux, Initial residual = 0.10310334, Final residual = 8.6662762e-05, No Iterations 1
DILUPBiCG:  Solving for Uy, Initial residual = 0.091104929, Final residual = 5.8875278e-05, No Iterations 1
DILUPBiCG:  Solving for Uz, Initial residual = 0.22177102, Final residual = 0.00014151117, No Iterations 1
DILUPBiCG:  Solving for h, Initial residual = 0.0066296902, Final residual = 2.4350967e-05, No Iterations 2
GAMG:  Solving for p_rgh, Initial residual = 0.017700192, Final residual = 3.7155565e-05, No Iterations 3
time step continuity errors : sum local = 7.8870832e-05, global = 3.5838682e-06, cumulative = 0.0003317493
Min/max rho:1.1427212 1.2016463
ExecutionTime = 1.15 s  ClockTime = 2 s
fluid  Inflow      : 8.6358471e-07 [kg/s]
fluid  Outflow     : 8.6657365e-07 [kg/s]
fluid  EnergyInflow  : 0.25515664 [W]
fluid  EnergyOutflow : 0.25630814 [W]
fluid  rho max/avg/min : 1.2016444 1.1871901 1.1438205
fluid  T   max/avg/min : 308.4968 297.32037 293.70021
fluid  P   max/avg/min : 101324.91 101316.16 101307.4
fluid  Prg max/avg/min : 101325 101324.89 101324.15
fluid  U   max/avg/min : 0.013052654 0.00094271256 -0.0195695
fluid  K average:  0.026701877
fluid  nu average: 1.5442213e-05

Solving for solid region cilcen
DICPCG:  Solving for h, Initial residual = 0.11263725, Final residual = 1.2763547e-17, No Iterations 1
Tcilcen  max/avg/min : 308.81213 308.81125 308.78114
ExecutionTime = 1.15 s  ClockTime = 2 s

Time = 17


Solving for fluid region fluid
DILUPBiCG:  Solving for Ux, Initial residual = 0.087861189, Final residual = 6.7157408e-05, No Iterations 1
DILUPBiCG:  Solving for Uy, Initial residual = 0.078202465, Final residual = 4.5360439e-05, No Iterations 1
DILUPBiCG:  Solving for Uz, Initial residual = 0.23058954, Final residual = 0.00017811783, No Iterations 1
DILUPBiCG:  Solving for h, Initial residual = 0.0062053278, Final residual = 3.7930585e-05, No Iterations 2
GAMG:  Solving for p_rgh, Initial residual = 0.017598022, Final residual = 5.5967062e-05, No Iterations 3
time step continuity errors : sum local = 0.00012984204, global = -4.337267e-05, cumulative = 0.00028837663
Min/max rho:1.1427222 1.2016463
ExecutionTime = 1.21 s  ClockTime = 2 s
fluid  Inflow      : 1.4187771e-06 [kg/s]
fluid  Outflow     : 1.3826043e-06 [kg/s]
fluid  EnergyInflow  : 0.419195 [W]
fluid  EnergyOutflow : 0.40881119 [W]
fluid  rho max/avg/min : 1.2016434 1.1867647 1.1437926
fluid  T   max/avg/min : 308.50438 297.42773 293.70045
fluid  P   max/avg/min : 101324.91 101316.15 101307.4
fluid  Prg max/avg/min : 101325 101324.89 101324.14
fluid  U   max/avg/min : 0.013862548 0.0012276074 -0.012509938
fluid  K average:  0.026709298
fluid  nu average: 1.5452112e-05

Solving for solid region cilcen
DICPCG:  Solving for h, Initial residual = 0.7364218, Final residual = 8.4171497e-17, No Iterations 1
Tcilcen  max/avg/min : 308.81971 308.81872 308.78565
ExecutionTime = 1.21 s  ClockTime = 2 s

Time = 18


Solving for fluid region fluid
DILUPBiCG:  Solving for Ux, Initial residual = 0.092923467, Final residual = 8.5821429e-05, No Iterations 1
DILUPBiCG:  Solving for Uy, Initial residual = 0.082761332, Final residual = 5.6714895e-05, No Iterations 1
DILUPBiCG:  Solving for Uz, Initial residual = 0.2835095, Final residual = 0.00026123675, No Iterations 1
DILUPBiCG:  Solving for h, Initial residual = 0.006164414, Final residual = 6.9655009e-06, No Iterations 3
GAMG:  Solving for p_rgh, Initial residual = 0.014101208, Final residual = 3.8197219e-05, No Iterations 3
time step continuity errors : sum local = 9.5620075e-05, global = 6.4175545e-06, cumulative = 0.00029479419
Min/max rho:1.1426943 1.2016463
ExecutionTime = 1.28 s  ClockTime = 2 s
fluid  Inflow      : 2.1896908e-06 [kg/s]
fluid  Outflow     : 2.195043e-06 [kg/s]
fluid  EnergyInflow  : 0.64697085 [W]
fluid  EnergyOutflow : 0.64889528 [W]
fluid  rho max/avg/min : 1.201644 1.1863519 1.1437392
fluid  T   max/avg/min : 308.51883 297.53196 293.70031
fluid  P   max/avg/min : 101324.91 101316.15 101307.39
fluid  Prg max/avg/min : 101325 101324.88 101324.14
fluid  U   max/avg/min : 0.014620575 0.0016246531 -0.0095932405
fluid  K average:  0.026716502
fluid  nu average: 1.5461726e-05

Solving for solid region cilcen
DICPCG:  Solving for h, Initial residual = 0.84257532, Final residual = 1.8479643e-16, No Iterations 1
Tcilcen  max/avg/min : 308.83416 308.83305 308.79684
ExecutionTime = 1.28 s  ClockTime = 2 s

Time = 19


Solving for fluid region fluid
DILUPBiCG:  Solving for Ux, Initial residual = 0.061070083, Final residual = 5.9944898e-05, No Iterations 1
DILUPBiCG:  Solving for Uy, Initial residual = 0.0546974, Final residual = 4.0988013e-05, No Iterations 1
DILUPBiCG:  Solving for Uz, Initial residual = 0.23853975, Final residual = 0.00027550525, No Iterations 1
DILUPBiCG:  Solving for h, Initial residual = 0.006122104, Final residual = 8.5671662e-06, No Iterations 3
GAMG:  Solving for p_rgh, Initial residual = 0.010802208, Final residual = 5.9385279e-05, No Iterations 3
time step continuity errors : sum local = 0.00015732918, global = 7.1043692e-05, cumulative = 0.00036583788
Min/max rho:1.1426411 1.2016463
ExecutionTime = 1.33 s  ClockTime = 2 s
fluid  Inflow      : 3.4504758e-06 [kg/s]
fluid  Outflow     : 3.5097262e-06 [kg/s]
fluid  EnergyInflow  : 1.0194852 [W]
fluid  EnergyOutflow : 1.0373817 [W]
fluid  rho max/avg/min : 1.2016443 1.1859479 1.1436633
fluid  T   max/avg/min : 308.53936 297.63402 293.70024
fluid  P   max/avg/min : 101324.91 101316.15 101307.38
fluid  Prg max/avg/min : 101325 101324.87 101324.13
fluid  U   max/avg/min : 0.015383277 0.0022075917 -0.0025935231
fluid  K average:  0.026723554
fluid  nu average: 1.5471141e-05

Solving for solid region cilcen
DICPCG:  Solving for h, Initial residual = 0.87978701, Final residual = 1.0744658e-16, No Iterations 1
Tcilcen  max/avg/min : 308.85468 308.85345 308.81389
ExecutionTime = 1.33 s  ClockTime = 2 s

Time = 20


Solving for fluid region fluid
DILUPBiCG:  Solving for Ux, Initial residual = 0.047841449, Final residual = 6.1748734e-05, No Iterations 1
DILUPBiCG:  Solving for Uy, Initial residual = 0.044651737, Final residual = 4.5100714e-05, No Iterations 1
DILUPBiCG:  Solving for Uz, Initial residual = 0.21199724, Final residual = 0.00029041585, No Iterations 1
DILUPBiCG:  Solving for h, Initial residual = 0.0060517441, Final residual = 1.3509648e-05, No Iterations 3
Radiation solver iter: 0
GAMG:  Solving for ILambda_0_0, Initial residual = 0.99616996, Final residual = 8.767423e-14, No Iterations 1
GAMG:  Solving for ILambda_1_0, Initial residual = 0.99616996, Final residual = 6.6114642e-13, No Iterations 1
GAMG:  Solving for ILambda_2_0, Initial residual = 0.96842715, Final residual = 2.4037322e-12, No Iterations 1
GAMG:  Solving for ILambda_3_0, Initial residual = 0.96842715, Final residual = 5.6680054e-13, No Iterations 1
Radiation solver iter: 1
GAMG:  Solving for ILambda_0_0, Initial residual = 3.4969032e-12, Final residual = 3.4969032e-12, No Iterations 0
GAMG:  Solving for ILambda_1_0, Initial residual = 2.6369949e-11, Final residual = 2.6369949e-11, No Iterations 0
GAMG:  Solving for ILambda_2_0, Initial residual = 1.2255574e-11, Final residual = 1.2255574e-11, No Iterations 0
GAMG:  Solving for ILambda_3_0, Initial residual = 2.8898667e-12, Final residual = 2.8898667e-12, No Iterations 0
GAMG:  Solving for p_rgh, Initial residual = 0.010575125, Final residual = 6.3483582e-05, No Iterations 3
time step continuity errors : sum local = 0.00016377635, global = 4.0913053e-05, cumulative = 0.00040675093
Min/max rho:1.1425655 1.2016463
ExecutionTime = 1.43 s  ClockTime = 2 s
fluid  Inflow      : 5.2733758e-06 [kg/s]
fluid  Outflow     : 5.3074972e-06 [kg/s]
fluid  EnergyInflow  : 1.5580832 [W]
fluid  EnergyOutflow : 1.5686188 [W]
fluid  rho max/avg/min : 1.201645 1.1855528 1.1435675
fluid  T   max/avg/min : 308.56529 297.73391 293.70005
fluid  P   max/avg/min : 101324.91 101316.14 101307.37
fluid  Prg max/avg/min : 101325 101324.86 101324.11
fluid  U   max/avg/min : 0.016115954 0.0029865922 0
fluid  K average:  0.026730456
fluid  nu average: 1.5480358e-05

Solving for solid region cilcen
DICPCG:  Solving for h, Initial residual = 0.90670076, Final residual = 1.0767514e-16, No Iterations 1
Tcilcen  max/avg/min : 308.88262 308.88125 308.83834
ExecutionTime = 1.43 s  ClockTime = 2 s

Time = 21


Solving for fluid region fluid
DILUPBiCG:  Solving for Ux, Initial residual = 0.038992745, Final residual = 6.0354111e-05, No Iterations 1
DILUPBiCG:  Solving for Uy, Initial residual = 0.036776236, Final residual = 4.4010995e-05, No Iterations 1
DILUPBiCG:  Solving for Uz, Initial residual = 0.17902822, Final residual = 0.00027666926, No Iterations 1
DILUPBiCG:  Solving for h, Initial residual = 0.0059952402, Final residual = 1.6831042e-05, No Iterations 3
GAMG:  Solving for p_rgh, Initial residual = 0.010884686, Final residual = 7.0985389e-05, No Iterations 3
time step continuity errors : sum local = 0.00016788999, global = 7.0045013e-05, cumulative = 0.00047679595
Min/max rho:1.1424624 1.2016463
ExecutionTime = 1.49 s  ClockTime = 2 s
fluid  Inflow      : 7.2975222e-06 [kg/s]
fluid  Outflow     : 7.3559397e-06 [kg/s]
fluid  EnergyInflow  : 2.156142 [W]
fluid  EnergyOutflow : 2.1739467 [W]
fluid  rho max/avg/min : 1.2016455 1.1851657 1.143448
fluid  T   max/avg/min : 308.59758 297.83181 293.6999
fluid  P   max/avg/min : 101324.91 101316.14 101307.36
fluid  Prg max/avg/min : 101325 101324.86 101324.1
fluid  U   max/avg/min : 0.017155607 0.0039014777 0
fluid  K average:  0.026737218
fluid  nu average: 1.5489393e-05

Solving for solid region cilcen
DICPCG:  Solving for h, Initial residual = 0.91263432, Final residual = 8.5548447e-17, No Iterations 1
Tcilcen  max/avg/min : 308.9149 308.91338 308.86684
ExecutionTime = 1.49 s  ClockTime = 2 s

Time = 22


Solving for fluid region fluid
DILUPBiCG:  Solving for Ux, Initial residual = 0.044058499, Final residual = 7.1848269e-05, No Iterations 1
DILUPBiCG:  Solving for Uy, Initial residual = 0.041567743, Final residual = 5.2404107e-05, No Iterations 1
DILUPBiCG:  Solving for Uz, Initial residual = 0.14718312, Final residual = 0.00024488421, No Iterations 1
DILUPBiCG:  Solving for h, Initial residual = 0.0058808982, Final residual = 1.6180555e-05, No Iterations 3
GAMG:  Solving for p_rgh, Initial residual = 0.011620502, Final residual = 4.2332432e-05, No Iterations 3
time step continuity errors : sum local = 9.1530594e-05, global = 2.8104934e-05, cumulative = 0.00050490088
Min/max rho:1.1423434 1.2016463
ExecutionTime = 1.55 s  ClockTime = 2 s
fluid  Inflow      : 9.3758716e-06 [kg/s]
fluid  Outflow     : 9.3993111e-06 [kg/s]
fluid  EnergyInflow  : 2.7702156 [W]
fluid  EnergyOutflow : 2.7778097 [W]
fluid  rho max/avg/min : 1.2016459 1.1847866 1.1433132
fluid  T   max/avg/min : 308.63407 297.92779 293.69967
fluid  P   max/avg/min : 101324.91 101316.14 101307.36
fluid  Prg max/avg/min : 101325 101324.85 101324.1
fluid  U   max/avg/min : 0.021360374 0.0048353631 0
fluid  K average:  0.026743847
fluid  nu average: 1.5498254e-05

Solving for solid region cilcen
DICPCG:  Solving for h, Initial residual = 0.91599603, Final residual = 1.0228098e-16, No Iterations 1
Tcilcen  max/avg/min : 308.95136 308.94968 308.89927
ExecutionTime = 1.55 s  ClockTime = 2 s

Time = 23


Solving for fluid region fluid
DILUPBiCG:  Solving for Ux, Initial residual = 0.045212371, Final residual = 8.5187491e-05, No Iterations 1
DILUPBiCG:  Solving for Uy, Initial residual = 0.04282104, Final residual = 6.3214631e-05, No Iterations 1
DILUPBiCG:  Solving for Uz, Initial residual = 0.11527547, Final residual = 0.00019761836, No Iterations 1
DILUPBiCG:  Solving for h, Initial residual = 0.0057652232, Final residual = 1.4613087e-05, No Iterations 3
GAMG:  Solving for p_rgh, Initial residual = 0.012499574, Final residual = 6.2065943e-05, No Iterations 3
time step continuity errors : sum local = 0.00012398428, global = 2.2210769e-05, cumulative = 0.00052711165
Min/max rho:1.1422088 1.2016463
ExecutionTime = 1.61 s  ClockTime = 2 s
fluid  Inflow      : 1.1302264e-05 [kg/s]
fluid  Outflow     : 1.1320787e-05 [kg/s]
fluid  EnergyInflow  : 3.3393917 [W]
fluid  EnergyOutflow : 3.345691 [W]
fluid  rho max/avg/min : 1.2016458 1.1844151 1.1431643
fluid  T   max/avg/min : 308.67437 298.02192 293.69954
fluid  P   max/avg/min : 101324.91 101316.14 101307.36
fluid  Prg max/avg/min : 101325 101324.85 101324.1
fluid  U   max/avg/min : 0.025110909 0.0057528597 0
fluid  K average:  0.026750347
fluid  nu average: 1.5506945e-05

Solving for solid region cilcen
DICPCG:  Solving for h, Initial residual = 0.916967, Final residual = 2.4765884e-16, No Iterations 1
Tcilcen  max/avg/min : 308.99163 308.98978 308.93524
ExecutionTime = 1.61 s  ClockTime = 2 s

Time = 24


Solving for fluid region fluid
DILUPBiCG:  Solving for Ux, Initial residual = 0.044010807, Final residual = 8.6575347e-05, No Iterations 1
DILUPBiCG:  Solving for Uy, Initial residual = 0.042368974, Final residual = 6.6113205e-05, No Iterations 1
DILUPBiCG:  Solving for Uz, Initial residual = 0.093926602, Final residual = 0.00016429452, No Iterations 1
DILUPBiCG:  Solving for h, Initial residual = 0.0056530766, Final residual = 1.3871024e-05, No Iterations 3
GAMG:  Solving for p_rgh, Initial residual = 0.012752871, Final residual = 1.7679964e-05, No Iterations 4
time step continuity errors : sum local = 3.3652191e-05, global = 2.270076e-05, cumulative = 0.00054981241
Min/max rho:1.1420602 1.2016463
ExecutionTime = 1.67 s  ClockTime = 2 s
fluid  Inflow      : 1.3109625e-05 [kg/s]
fluid  Outflow     : 1.3128558e-05 [kg/s]
fluid  EnergyInflow  : 3.8733987 [W]
fluid  EnergyOutflow : 3.8800063 [W]
fluid  rho max/avg/min : 1.2016459 1.1840509 1.1430026
fluid  T   max/avg/min : 308.7181 298.11425 293.69929
fluid  P   max/avg/min : 101324.91 101316.14 101307.36
fluid  Prg max/avg/min : 101325 101324.85 101324.1
fluid  U   max/avg/min : 0.028495269 0.0066570794 0
fluid  K average:  0.026756722
fluid  nu average: 1.5515472e-05

Solving for solid region cilcen
DICPCG:  Solving for h, Initial residual = 0.91622363, Final residual = 9.7522697e-17, No Iterations 1
Tcilcen  max/avg/min : 309.03534 309.0333 308.97437
ExecutionTime = 1.67 s  ClockTime = 2 s

Time = 25


Solving for fluid region fluid
DILUPBiCG:  Solving for Ux, Initial residual = 0.044753443, Final residual = 9.2318714e-05, No Iterations 1
DILUPBiCG:  Solving for Uy, Initial residual = 0.043111085, Final residual = 7.1120846e-05, No Iterations 1
DILUPBiCG:  Solving for Uz, Initial residual = 0.07943785, Final residual = 0.0001386279, No Iterations 1
DILUPBiCG:  Solving for h, Initial residual = 0.0055412501, Final residual = 1.4140237e-05, No Iterations 3
GAMG:  Solving for p_rgh, Initial residual = 0.013766157, Final residual = 7.0599128e-05, No Iterations 3
time step continuity errors : sum local = 0.00013114392, global = 2.8690756e-05, cumulative = 0.00057850317
Min/max rho:1.1418989 1.2016463
ExecutionTime = 1.73 s  ClockTime = 2 s
fluid  Inflow      : 1.4862001e-05 [kg/s]
fluid  Outflow     : 1.4885929e-05 [kg/s]
fluid  EnergyInflow  : 4.3911596 [W]
fluid  EnergyOutflow : 4.3994595 [W]
fluid  rho max/avg/min : 1.2016458 1.1836943 1.1428294
fluid  T   max/avg/min : 308.76495 298.20475 293.69906
fluid  P   max/avg/min : 101324.91 101316.13 101307.36
fluid  Prg max/avg/min : 101325 101324.84 101324.09
fluid  U   max/avg/min : 0.031745871 0.0075539852 0
fluid  K average:  0.026762969
fluid  nu average: 1.5523832e-05

Solving for solid region cilcen
DICPCG:  Solving for h, Initial residual = 0.91420659, Final residual = 1.1921237e-16, No Iterations 1
Tcilcen  max/avg/min : 309.08215 309.07992 309.01632
ExecutionTime = 1.73 s  ClockTime = 2 s

Time = 26


Solving for fluid region fluid
DILUPBiCG:  Solving for Ux, Initial residual = 0.040358203, Final residual = 8.3271975e-05, No Iterations 1
DILUPBiCG:  Solving for Uy, Initial residual = 0.039547363, Final residual = 6.5941522e-05, No Iterations 1
DILUPBiCG:  Solving for Uz, Initial residual = 0.06941126, Final residual = 0.00012187918, No Iterations 1
DILUPBiCG:  Solving for h, Initial residual = 0.0054344732, Final residual = 1.2475776e-05, No Iterations 3
GAMG:  Solving for p_rgh, Initial residual = 0.013573205, Final residual = 5.981553e-05, No Iterations 3
time step continuity errors : sum local = 0.00010790704, global = 6.731322e-05, cumulative = 0.00064581639
Min/max rho:1.1417263 1.2016463
ExecutionTime = 1.79 s  ClockTime = 2 s
fluid  Inflow      : 1.6587315e-05 [kg/s]
fluid  Outflow     : 1.6643454e-05 [kg/s]
fluid  EnergyInflow  : 4.9009246 [W]
fluid  EnergyOutflow : 4.918989 [W]
fluid  rho max/avg/min : 1.2016459 1.1833446 1.1426458
fluid  T   max/avg/min : 308.81465 298.29356 293.69876
fluid  P   max/avg/min : 101324.91 101316.13 101307.35
fluid  Prg max/avg/min : 101325 101324.84 101324.09
fluid  U   max/avg/min : 0.034896901 0.0084806767 0
fluid  K average:  0.026769098
fluid  nu average: 1.5532038e-05

Solving for solid region cilcen
DICPCG:  Solving for h, Initial residual = 0.91125532, Final residual = 1.1200841e-16, No Iterations 1
Tcilcen  max/avg/min : 309.13181 309.12937 309.06081
ExecutionTime = 1.79 s  ClockTime = 2 s

Time = 27


Solving for fluid region fluid
DILUPBiCG:  Solving for Ux, Initial residual = 0.039131896, Final residual = 8.2128248e-05, No Iterations 1
DILUPBiCG:  Solving for Uy, Initial residual = 0.038488934, Final residual = 6.5748665e-05, No Iterations 1
DILUPBiCG:  Solving for Uz, Initial residual = 0.064225861, Final residual = 0.0001107211, No Iterations 1
DILUPBiCG:  Solving for h, Initial residual = 0.0053228151, Final residual = 1.1717202e-05, No Iterations 3
GAMG:  Solving for p_rgh, Initial residual = 0.014345978, Final residual = 6.2896903e-05, No Iterations 3
time step continuity errors : sum local = 0.00011244861, global = -1.8922874e-05, cumulative = 0.00062689351
Min/max rho:1.1415431 1.2016463
ExecutionTime = 1.85 s  ClockTime = 2 s
fluid  Inflow      : 1.8438523e-05 [kg/s]
fluid  Outflow     : 1.8422741e-05 [kg/s]
fluid  EnergyInflow  : 5.4478866 [W]
fluid  EnergyOutflow : 5.4449846 [W]
fluid  rho max/avg/min : 1.2016458 1.183002 1.1424527
fluid  T   max/avg/min : 308.86694 298.38061 293.69845
fluid  P   max/avg/min : 101324.91 101316.13 101307.35
fluid  Prg max/avg/min : 101325 101324.83 101324.08
fluid  U   max/avg/min : 0.03819222 0.0094343781 0
fluid  K average:  0.026775105
fluid  nu average: 1.5540084e-05

Solving for solid region cilcen
DICPCG:  Solving for h, Initial residual = 0.9074962, Final residual = 8.7841302e-17, No Iterations 1
Tcilcen  max/avg/min : 309.18406 309.1814 309.10756
ExecutionTime = 1.85 s  ClockTime = 2 s

Time = 28


Solving for fluid region fluid
DILUPBiCG:  Solving for Ux, Initial residual = 0.034422685, Final residual = 7.5397711e-05, No Iterations 1
DILUPBiCG:  Solving for Uy, Initial residual = 0.034459306, Final residual = 6.1626912e-05, No Iterations 1
DILUPBiCG:  Solving for Uz, Initial residual = 0.059332292, Final residual = 0.00010272124, No Iterations 1
DILUPBiCG:  Solving for h, Initial residual = 0.0052103756, Final residual = 1.1143192e-05, No Iterations 3
GAMG:  Solving for p_rgh, Initial residual = 0.014191095, Final residual = 6.8809557e-05, No Iterations 3
time step continuity errors : sum local = 0.00012196707, global = 0.00010503035, cumulative = 0.00073192386
Min/max rho:1.1413505 1.2016463
ExecutionTime = 1.9 s  ClockTime = 2 s
fluid  Inflow      : 2.0131906e-05 [kg/s]
fluid  Outflow     : 2.0219501e-05 [kg/s]
fluid  EnergyInflow  : 5.9482171 [W]
fluid  EnergyOutflow : 5.9761817 [W]
fluid  rho max/avg/min : 1.2016458 1.1826666 1.1422509
fluid  T   max/avg/min : 308.92158 298.46594 293.69812
fluid  P   max/avg/min : 101324.91 101316.13 101307.35
fluid  Prg max/avg/min : 101325 101324.83 101324.08
fluid  U   max/avg/min : 0.04121357 0.010406342 0
fluid  K average:  0.026780991
fluid  nu average: 1.5547973e-05

Solving for solid region cilcen
DICPCG:  Solving for h, Initial residual = 0.90306337, Final residual = 1.9322035e-16, No Iterations 1
Tcilcen  max/avg/min : 309.23867 309.23577 309.15633
ExecutionTime = 1.9 s  ClockTime = 2 s

Time = 29


Solving for fluid region fluid
DILUPBiCG:  Solving for Ux, Initial residual = 0.032527354, Final residual = 6.9432988e-05, No Iterations 1
DILUPBiCG:  Solving for Uy, Initial residual = 0.032674736, Final residual = 5.7339802e-05, No Iterations 1
DILUPBiCG:  Solving for Uz, Initial residual = 0.054551868, Final residual = 9.2021007e-05, No Iterations 1
DILUPBiCG:  Solving for h, Initial residual = 0.005096744, Final residual = 1.1378203e-05, No Iterations 3
GAMG:  Solving for p_rgh, Initial residual = 0.014843454, Final residual = 6.241247e-05, No Iterations 3
time step continuity errors : sum local = 0.00010951459, global = -3.0141737e-05, cumulative = 0.00070178212
Min/max rho:1.1411494 1.2016463
ExecutionTime = 1.97 s  ClockTime = 2 s
fluid  Inflow      : 2.2047193e-05 [kg/s]
fluid  Outflow     : 2.2022055e-05 [kg/s]
fluid  EnergyInflow  : 6.5141121 [W]
fluid  EnergyOutflow : 6.5091328 [W]
fluid  rho max/avg/min : 1.2016458 1.1823381 1.1420413
fluid  T   max/avg/min : 308.97838 298.54956 293.69779
fluid  P   max/avg/min : 101324.91 101316.13 101307.34
fluid  Prg max/avg/min : 101325 101324.83 101324.07
fluid  U   max/avg/min : 0.044584499 0.011422393 0
fluid  K average:  0.026786759
fluid  nu average: 1.5555707e-05

Solving for solid region cilcen
DICPCG:  Solving for h, Initial residual = 0.89803743, Final residual = 7.6338081e-17, No Iterations 1
Tcilcen  max/avg/min : 309.29543 309.29228 309.20688
ExecutionTime = 1.97 s  ClockTime = 2 s

Time = 30


Solving for fluid region fluid
DILUPBiCG:  Solving for Ux, Initial residual = 0.030792185, Final residual = 6.759037e-05, No Iterations 1
DILUPBiCG:  Solving for Uy, Initial residual = 0.031096773, Final residual = 5.6315614e-05, No Iterations 1
DILUPBiCG:  Solving for Uz, Initial residual = 0.052616138, Final residual = 8.9589661e-05, No Iterations 1
DILUPBiCG:  Solving for h, Initial residual = 0.004979734, Final residual = 1.2857952e-05, No Iterations 3
Radiation solver iter: 0
GAMG:  Solving for ILambda_0_0, Initial residual = 0.99499375, Final residual = 4.2365382e-14, No Iterations 1
GAMG:  Solving for ILambda_1_0, Initial residual = 0.99499375, Final residual = 3.0873421e-13, No Iterations 1
GAMG:  Solving for ILambda_2_0, Initial residual = 0.89835012, Final residual = 1.9256098e-12, No Iterations 1
GAMG:  Solving for ILambda_3_0, Initial residual = 0.89835012, Final residual = 4.6095688e-13, No Iterations 1
Radiation solver iter: 1
GAMG:  Solving for ILambda_0_0, Initial residual = 1.7096757e-12, Final residual = 1.7096757e-12, No Iterations 0
GAMG:  Solving for ILambda_1_0, Initial residual = 1.245912e-11, Final residual = 1.245912e-11, No Iterations 0
GAMG:  Solving for ILambda_2_0, Initial residual = 1.0446903e-12, Final residual = 1.0446903e-12, No Iterations 0
GAMG:  Solving for ILambda_3_0, Initial residual = 2.5008036e-13, Final residual = 2.5008036e-13, No Iterations 0
GAMG:  Solving for p_rgh, Initial residual = 0.014798161, Final residual = 6.5978186e-05, No Iterations 3
time step continuity errors : sum local = 0.00011619675, global = -1.9978595e-05, cumulative = 0.00068180353
Min/max rho:1.1409402 1.2016463
ExecutionTime = 2.05 s  ClockTime = 3 s
fluid  Inflow      : 2.3811467e-05 [kg/s]
fluid  Outflow     : 2.3794805e-05 [kg/s]
fluid  EnergyInflow  : 7.0353885 [W]
fluid  EnergyOutflow : 7.033319 [W]
fluid  rho max/avg/min : 1.2016458 1.1820168 1.1418246
fluid  T   max/avg/min : 309.03712 298.63143 293.69746
fluid  P   max/avg/min : 101324.91 101316.13 101307.34
fluid  Prg max/avg/min : 101325 101324.82 101324.07
fluid  U   max/avg/min : 0.047762397 0.012431571 0
fluid  K average:  0.026792404
fluid  nu average: 1.5563281e-05

Solving for solid region cilcen
DICPCG:  Solving for h, Initial residual = 0.8814576, Final residual = 1.0273963e-16, No Iterations 1
Tcilcen  max/avg/min : 309.34933 309.34589 309.25463
ExecutionTime = 2.05 s  ClockTime = 3 s

Time = 31


Solving for fluid region fluid
DILUPBiCG:  Solving for Ux, Initial residual = 0.029892011, Final residual = 6.2706019e-05, No Iterations 1
DILUPBiCG:  Solving for Uy, Initial residual = 0.030058283, Final residual = 5.2388758e-05, No Iterations 1
DILUPBiCG:  Solving for Uz, Initial residual = 0.047068919, Final residual = 7.7872423e-05, No Iterations 1
DILUPBiCG:  Solving for h, Initial residual = 0.0047838962, Final residual = 1.5853478e-05, No Iterations 3
GAMG:  Solving for p_rgh, Initial residual = 0.015543149, Final residual = 0.00010021079, No Iterations 3
time step continuity errors : sum local = 0.00017385826, global = 5.3923044e-05, cumulative = 0.00073572657
Min/max rho:1.1407412 1.2016463
ExecutionTime = 2.11 s  ClockTime = 3 s
fluid  Inflow      : 2.5463169e-05 [kg/s]
fluid  Outflow     : 2.5508141e-05 [kg/s]
fluid  EnergyInflow  : 7.5234039 [W]
fluid  EnergyOutflow : 7.5399873 [W]
fluid  rho max/avg/min : 1.2016458 1.1817034 1.1416147
fluid  T   max/avg/min : 309.09391 298.71137 293.69713
fluid  P   max/avg/min : 101324.91 101316.13 101307.34
fluid  Prg max/avg/min : 101325 101324.82 101324.06
fluid  U   max/avg/min : 0.050705716 0.013430461 0
fluid  K average:  0.026797915
fluid  nu average: 1.5570678e-05

Solving for solid region cilcen
DICPCG:  Solving for h, Initial residual = 0.87893851, Final residual = 1.0267473e-16, No Iterations 1
Tcilcen  max/avg/min : 309.40617 309.40236 309.3047
ExecutionTime = 2.11 s  ClockTime = 3 s

Time = 32


Solving for fluid region fluid
DILUPBiCG:  Solving for Ux, Initial residual = 0.026459232, Final residual = 5.7051937e-05, No Iterations 1
DILUPBiCG:  Solving for Uy, Initial residual = 0.026908927, Final residual = 4.8378079e-05, No Iterations 1
DILUPBiCG:  Solving for Uz, Initial residual = 0.043443651, Final residual = 7.2988573e-05, No Iterations 1
DILUPBiCG:  Solving for h, Initial residual = 0.004675258, Final residual = 2.6816013e-05, No Iterations 3
GAMG:  Solving for p_rgh, Initial residual = 0.015010698, Final residual = 1.842881e-05, No Iterations 4
time step continuity errors : sum local = 3.1880093e-05, global = 4.0656369e-06, cumulative = 0.00073979221
Min/max rho:1.1405318 1.2016463
ExecutionTime = 2.18 s  ClockTime = 3 s
fluid  Inflow      : 2.7126744e-05 [kg/s]
fluid  Outflow     : 2.7130135e-05 [kg/s]
fluid  EnergyInflow  : 8.0149275 [W]
fluid  EnergyOutflow : 8.0196994 [W]
fluid  rho max/avg/min : 1.2016458 1.1813975 1.1413983
fluid  T   max/avg/min : 309.15254 298.78947 293.6968
fluid  P   max/avg/min : 101324.91 101316.13 101307.35
fluid  Prg max/avg/min : 101325 101324.82 101324.06
fluid  U   max/avg/min : 0.053612134 0.014409628 0
fluid  K average:  0.026803298
fluid  nu average: 1.5577906e-05

Solving for solid region cilcen
DICPCG:  Solving for h, Initial residual = 0.87339156, Final residual = 6.5095656e-17, No Iterations 1
Tcilcen  max/avg/min : 309.46476 309.46057 309.3561
ExecutionTime = 2.18 s  ClockTime = 3 s

Time = 33


Solving for fluid region fluid
DILUPBiCG:  Solving for Ux, Initial residual = 0.029405542, Final residual = 5.9545688e-05, No Iterations 1
DILUPBiCG:  Solving for Uy, Initial residual = 0.02929768, Final residual = 4.9571038e-05, No Iterations 1
DILUPBiCG:  Solving for Uz, Initial residual = 0.039342819, Final residual = 6.4179737e-05, No Iterations 1
DILUPBiCG:  Solving for h, Initial residual = 0.0045655554, Final residual = 2.9349029e-05, No Iterations 4
GAMG:  Solving for p_rgh, Initial residual = 0.015483389, Final residual = 0.00011202338, No Iterations 3
time step continuity errors : sum local = 0.00019376526, global = -2.8201282e-05, cumulative = 0.00071159093
Min/max rho:1.1403161 1.2016463
ExecutionTime = 2.25 s  ClockTime = 3 s
fluid  Inflow      : 2.8645393e-05 [kg/s]
fluid  Outflow     : 2.8621873e-05 [kg/s]
fluid  EnergyInflow  : 8.4636309 [W]
fluid  EnergyOutflow : 8.4609474 [W]
fluid  rho max/avg/min : 1.2016458 1.1810987 1.1411763
fluid  T   max/avg/min : 309.21272 298.8658 293.69648
fluid  P   max/avg/min : 101324.91 101316.13 101307.35
fluid  Prg max/avg/min : 101325 101324.82 101324.06
fluid  U   max/avg/min : 0.056260469 0.015365578 0
fluid  K average:  0.026808558
fluid  nu average: 1.5584973e-05

Solving for solid region cilcen
DICPCG:  Solving for h, Initial residual = 0.86717975, Final residual = 1.9055206e-16, No Iterations 1
Tcilcen  max/avg/min : 309.5249 309.52032 309.4086
ExecutionTime = 2.25 s  ClockTime = 3 s

Time = 34


Solving for fluid region fluid
DILUPBiCG:  Solving for Ux, Initial residual = 0.024373757, Final residual = 5.0207153e-05, No Iterations 1
DILUPBiCG:  Solving for Uy, Initial residual = 0.024640683, Final residual = 4.2532213e-05, No Iterations 1
DILUPBiCG:  Solving for Uz, Initial residual = 0.036132826, Final residual = 6.0136242e-05, No Iterations 1
DILUPBiCG:  Solving for h, Initial residual = 0.0044643211, Final residual = 4.4172662e-05, No Iterations 5
GAMG:  Solving for p_rgh, Initial residual = 0.01522672, Final residual = 4.7297003e-05, No Iterations 3
time step continuity errors : sum local = 8.1694654e-05, global = 2.5153139e-05, cumulative = 0.00073674407
Min/max rho:1.1400947 1.2016463
ExecutionTime = 2.32 s  ClockTime = 3 s
fluid  Inflow      : 2.9956195e-05 [kg/s]
fluid  Outflow     : 2.9977173e-05 [kg/s]
fluid  EnergyInflow  : 8.8509234 [W]
fluid  EnergyOutflow : 8.8618946 [W]
fluid  rho max/avg/min : 1.2016458 1.1808026 1.1409445
fluid  T   max/avg/min : 309.27562 298.94154 293.69616
fluid  P   max/avg/min : 101324.91 101316.13 101307.36
fluid  Prg max/avg/min : 101325 101324.82 101324.07
fluid  U   max/avg/min : 0.058501422 0.016236856 0
fluid  K average:  0.026813777
fluid  nu average: 1.5591989e-05

Solving for solid region cilcen
DICPCG:  Solving for h, Initial residual = 0.8635256, Final residual = 1.5675311e-16, No Iterations 1
Tcilcen  max/avg/min : 309.58776 309.58276 309.46316
ExecutionTime = 2.32 s  ClockTime = 3 s

Time = 35


Solving for fluid region fluid
DILUPBiCG:  Solving for Ux, Initial residual = 0.026447637, Final residual = 5.3240671e-05, No Iterations 1
DILUPBiCG:  Solving for Uy, Initial residual = 0.026355131, Final residual = 4.4412472e-05, No Iterations 1
DILUPBiCG:  Solving for Uz, Initial residual = 0.029913389, Final residual = 4.854549e-05, No Iterations 1
DILUPBiCG:  Solving for h, Initial residual = 0.0043647436, Final residual = 5.1759769e-07, No Iterations 6
GAMG:  Solving for p_rgh, Initial residual = 0.015632149, Final residual = 0.00010526703, No Iterations 3
time step continuity errors : sum local = 0.00018166366, global = 3.065828e-05, cumulative = 0.00076740235
Min/max rho:1.1398636 1.2016463
ExecutionTime = 2.4 s  ClockTime = 3 s
fluid  Inflow      : 3.115982e-05 [kg/s]
fluid  Outflow     : 3.1185389e-05 [kg/s]
fluid  EnergyInflow  : 9.2065489 [W]
fluid  EnergyOutflow : 9.2193877 [W]
fluid  rho max/avg/min : 1.2016458 1.1805156 1.1407104
fluid  T   max/avg/min : 309.33917 299.01504 293.69587
fluid  P   max/avg/min : 101324.91 101316.13 101307.36
fluid  Prg max/avg/min : 101325 101324.82 101324.07
fluid  U   max/avg/min : 0.060532698 0.017077437 0
fluid  K average:  0.026818839
fluid  nu average: 1.5598798e-05

Solving for solid region cilcen
DICPCG:  Solving for h, Initial residual = 0.85474977, Final residual = 8.148613e-17, No Iterations 1
Tcilcen  max/avg/min : 309.65126 309.64584 309.51795
ExecutionTime = 2.4 s  ClockTime = 3 s

Time = 36


Solving for fluid region fluid
DILUPBiCG:  Solving for Ux, Initial residual = 0.021145225, Final residual = 4.3794353e-05, No Iterations 1
DILUPBiCG:  Solving for Uy, Initial residual = 0.02144472, Final residual = 3.7190439e-05, No Iterations 1
DILUPBiCG:  Solving for Uz, Initial residual = 0.028246187, Final residual = 4.7219721e-05, No Iterations 1
DILUPBiCG:  Solving for h, Initial residual = 0.0042747952, Final residual = 1.3605644e-06, No Iterations 6
GAMG:  Solving for p_rgh, Initial residual = 0.015118201, Final residual = 6.740612e-05, No Iterations 3
time step continuity errors : sum local = 0.00011644889, global = 2.4140812e-05, cumulative = 0.00079154316
Min/max rho:1.1396301 1.2016463
ExecutionTime = 2.46 s  ClockTime = 3 s
fluid  Inflow      : 3.2250765e-05 [kg/s]
fluid  Outflow     : 3.2270898e-05 [kg/s]
fluid  EnergyInflow  : 9.528882 [W]
fluid  EnergyOutflow : 9.5406238 [W]
fluid  rho max/avg/min : 1.2016458 1.1802345 1.1404716
fluid  T   max/avg/min : 309.40403 299.08707 293.69558
fluid  P   max/avg/min : 101324.91 101316.14 101307.36
fluid  Prg max/avg/min : 101325 101324.82 101324.07
fluid  U   max/avg/min : 0.062358418 0.017865741 0
fluid  K average:  0.026823799
fluid  nu average: 1.5605473e-05

Solving for solid region cilcen
DICPCG:  Solving for h, Initial residual = 0.84748085, Final residual = 3.0448803e-16, No Iterations 1
Tcilcen  max/avg/min : 309.71607 309.71021 309.57351
ExecutionTime = 2.46 s  ClockTime = 3 s

Time = 37


Solving for fluid region fluid
DILUPBiCG:  Solving for Ux, Initial residual = 0.022912486, Final residual = 4.6579592e-05, No Iterations 1
DILUPBiCG:  Solving for Uy, Initial residual = 0.022902861, Final residual = 3.8864437e-05, No Iterations 1
DILUPBiCG:  Solving for Uz, Initial residual = 0.024403285, Final residual = 3.9380818e-05, No Iterations 1
DILUPBiCG:  Solving for h, Initial residual = 0.0041844342, Final residual = 3.192582e-05, No Iterations 3
GAMG:  Solving for p_rgh, Initial residual = 0.015320588, Final residual = 6.5122952e-05, No Iterations 3
time step continuity errors : sum local = 0.00011328534, global = -7.2567174e-05, cumulative = 0.00071897599
Min/max rho:1.139392 1.2016463
ExecutionTime = 2.52 s  ClockTime = 3 s
fluid  Inflow      : 3.329525e-05 [kg/s]
fluid  Outflow     : 3.3234729e-05 [kg/s]
fluid  EnergyInflow  : 9.8374879 [W]
fluid  EnergyOutflow : 9.825905 [W]
fluid  rho max/avg/min : 1.2016458 1.1799604 1.1402305
fluid  T   max/avg/min : 309.46956 299.15739 293.69531
fluid  P   max/avg/min : 101324.91 101316.14 101307.37
fluid  Prg max/avg/min : 101325 101324.82 101324.07
fluid  U   max/avg/min : 0.06403383 0.018625197 0
fluid  K average:  0.02682864
fluid  nu average: 1.5611991e-05

Solving for solid region cilcen
DICPCG:  Solving for h, Initial residual = 0.83857867, Final residual = 8.4981301e-17, No Iterations 1
Tcilcen  max/avg/min : 309.78155 309.77523 309.62926
ExecutionTime = 2.52 s  ClockTime = 3 s

Time = 38


Solving for fluid region fluid
DILUPBiCG:  Solving for Ux, Initial residual = 0.017142656, Final residual = 3.7053911e-05, No Iterations 1
DILUPBiCG:  Solving for Uy, Initial residual = 0.017560279, Final residual = 3.1749895e-05, No Iterations 1
DILUPBiCG:  Solving for Uz, Initial residual = 0.022954646, Final residual = 3.8591562e-05, No Iterations 1
DILUPBiCG:  Solving for h, Initial residual = 0.0041004458, Final residual = 3.9080875e-05, No Iterations 3
GAMG:  Solving for p_rgh, Initial residual = 0.014831785, Final residual = 5.9936027e-05, No Iterations 3
time step continuity errors : sum local = 0.00010533363, global = 3.070071e-05, cumulative = 0.0007496767
Min/max rho:1.1391515 1.2016463
ExecutionTime = 2.58 s  ClockTime = 3 s
fluid  Inflow      : 3.4081287e-05 [kg/s]
fluid  Outflow     : 3.4106891e-05 [kg/s]
fluid  EnergyInflow  : 10.069732 [W]
fluid  EnergyOutflow : 10.084096 [W]
fluid  rho max/avg/min : 1.2016458 1.1796897 1.1399808
fluid  T   max/avg/min : 309.53742 299.22691 293.69505
fluid  P   max/avg/min : 101324.91 101316.14 101307.37
fluid  Prg max/avg/min : 101325 101324.82 101324.07
fluid  U   max/avg/min : 0.065339419 0.019320249 0
fluid  K average:  0.026833425
fluid  nu average: 1.5618439e-05

Solving for solid region cilcen
DICPCG:  Solving for h, Initial residual = 0.83367062, Final residual = 1.7603142e-16, No Iterations 1
Tcilcen  max/avg/min : 309.84937 309.84257 309.68657
ExecutionTime = 2.58 s  ClockTime = 3 s

Time = 39


Solving for fluid region fluid
DILUPBiCG:  Solving for Ux, Initial residual = 0.0181661, Final residual = 3.844661e-05, No Iterations 1
DILUPBiCG:  Solving for Uy, Initial residual = 0.018392112, Final residual = 3.2247492e-05, No Iterations 1
DILUPBiCG:  Solving for Uz, Initial residual = 0.019109676, Final residual = 3.071471e-05, No Iterations 1
DILUPBiCG:  Solving for h, Initial residual = 0.0040194909, Final residual = 6.6173616e-06, No Iterations 5
GAMG:  Solving for p_rgh, Initial residual = 0.015183565, Final residual = 4.4816416e-05, No Iterations 3
time step continuity errors : sum local = 7.912544e-05, global = 2.2731604e-05, cumulative = 0.0007724083
Min/max rho:1.1389024 1.2016463
ExecutionTime = 2.64 s  ClockTime = 3 s
fluid  Inflow      : 3.4884534e-05 [kg/s]
fluid  Outflow     : 3.4903493e-05 [kg/s]
fluid  EnergyInflow  : 10.307061 [W]
fluid  EnergyOutflow : 10.319957 [W]
fluid  rho max/avg/min : 1.2016458 1.1794267 1.1397299
fluid  T   max/avg/min : 309.60567 299.29454 293.69481
fluid  P   max/avg/min : 101324.91 101316.14 101307.37
fluid  Prg max/avg/min : 101325 101324.82 101324.07
fluid  U   max/avg/min : 0.06662862 0.020003135 0
fluid  K average:  0.026838079
fluid  nu average: 1.5624712e-05

Solving for solid region cilcen
DICPCG:  Solving for h, Initial residual = 0.82291951, Final residual = 9.272428e-17, No Iterations 1
Tcilcen  max/avg/min : 309.91757 309.91027 309.74375
ExecutionTime = 2.64 s  ClockTime = 3 s

Time = 40


Solving for fluid region fluid
DILUPBiCG:  Solving for Ux, Initial residual = 0.013775086, Final residual = 3.0198314e-05, No Iterations 1
DILUPBiCG:  Solving for Uy, Initial residual = 0.014238387, Final residual = 2.5843621e-05, No Iterations 1
DILUPBiCG:  Solving for Uz, Initial residual = 0.01896903, Final residual = 3.1960355e-05, No Iterations 1
DILUPBiCG:  Solving for h, Initial residual = 0.0039444621, Final residual = 4.4194739e-06, No Iterations 5
Radiation solver iter: 0
GAMG:  Solving for ILambda_0_0, Initial residual = 0.99127429, Final residual = 1.9726464e-14, No Iterations 1
GAMG:  Solving for ILambda_1_0, Initial residual = 0.99127429, Final residual = 2.4218621e-13, No Iterations 1
GAMG:  Solving for ILambda_2_0, Initial residual = 0.46942614, Final residual = 1.0437944e-12, No Iterations 1
GAMG:  Solving for ILambda_3_0, Initial residual = 0.46942614, Final residual = 2.275079e-13, No Iterations 1
Radiation solver iter: 1
GAMG:  Solving for ILambda_0_0, Initial residual = 5.5722584e-13, Final residual = 5.5722584e-13, No Iterations 0
GAMG:  Solving for ILambda_1_0, Initial residual = 6.8411863e-12, Final residual = 6.8411863e-12, No Iterations 0
GAMG:  Solving for ILambda_2_0, Initial residual = 2.103994e-12, Final residual = 2.103994e-12, No Iterations 0
GAMG:  Solving for ILambda_3_0, Initial residual = 4.5859151e-13, Final residual = 4.5859151e-13, No Iterations 0
GAMG:  Solving for p_rgh, Initial residual = 0.014279633, Final residual = 5.335362e-05, No Iterations 3
time step continuity errors : sum local = 9.5631656e-05, global = -2.1676453e-05, cumulative = 0.00075073185
Min/max rho:1.1386519 1.2016463
ExecutionTime = 2.72 s  ClockTime = 3 s
fluid  Inflow      : 3.5673297e-05 [kg/s]
fluid  Outflow     : 3.5655219e-05 [kg/s]
fluid  EnergyInflow  : 10.540111 [W]
fluid  EnergyOutflow : 10.542559 [W]
fluid  rho max/avg/min : 1.2016458 1.1791692 1.1394756
fluid  T   max/avg/min : 309.6748 299.36078 293.69459
fluid  P   max/avg/min : 101324.91 101316.14 101307.38
fluid  Prg max/avg/min : 101325 101324.82 101324.07
fluid  U   max/avg/min : 0.067909757 0.020674915 0
fluid  K average:  0.026842636
fluid  nu average: 1.563086e-05

Solving for solid region cilcen
DICPCG:  Solving for h, Initial residual = 0.79106075, Final residual = 1.5058207e-16, No Iterations 1
Tcilcen  max/avg/min : 309.97962 309.97188 309.7952
ExecutionTime = 2.72 s  ClockTime = 3 s

Time = 41


Solving for fluid region fluid
DILUPBiCG:  Solving for Ux, Initial residual = 0.015245752, Final residual = 3.3381979e-05, No Iterations 1
DILUPBiCG:  Solving for Uy, Initial residual = 0.015506957, Final residual = 2.7781383e-05, No Iterations 1
DILUPBiCG:  Solving for Uz, Initial residual = 0.017673668, Final residual = 2.8104148e-05, No Iterations 1
DILUPBiCG:  Solving for h, Initial residual = 0.0037694155, Final residual = 4.673596e-06, No Iterations 5
GAMG:  Solving for p_rgh, Initial residual = 0.014206319, Final residual = 7.7945288e-05, No Iterations 3
time step continuity errors : sum local = 0.0001409497, global = 3.6314486e-05, cumulative = 0.00078704633
Min/max rho:1.1384241 1.2016463
ExecutionTime = 2.77 s  ClockTime = 3 s
fluid  Inflow      : 3.6349413e-05 [kg/s]
fluid  Outflow     : 3.6379699e-05 [kg/s]
fluid  EnergyInflow  : 10.739878 [W]
fluid  EnergyOutflow : 10.757116 [W]
fluid  rho max/avg/min : 1.2016458 1.1789184 1.1392382
fluid  T   max/avg/min : 309.73936 299.42537 293.69437
fluid  P   max/avg/min : 101324.91 101316.14 101307.37
fluid  Prg max/avg/min : 101325 101324.81 101324.06
fluid  U   max/avg/min : 0.068993556 0.021346494 0
fluid  K average:  0.026847078
fluid  nu average: 1.5636855e-05

Solving for solid region cilcen
DICPCG:  Solving for h, Initial residual = 0.7868638, Final residual = 9.3690601e-17, No Iterations 1
Tcilcen  max/avg/min : 310.04414 310.03593 309.8482
ExecutionTime = 2.78 s  ClockTime = 3 s

Time = 42


Solving for fluid region fluid
DILUPBiCG:  Solving for Ux, Initial residual = 0.011418782, Final residual = 2.4592663e-05, No Iterations 1
DILUPBiCG:  Solving for Uy, Initial residual = 0.011834288, Final residual = 2.1040426e-05, No Iterations 1
DILUPBiCG:  Solving for Uz, Initial residual = 0.017525606, Final residual = 2.9374574e-05, No Iterations 1
DILUPBiCG:  Solving for h, Initial residual = 0.0036999523, Final residual = 5.5460507e-06, No Iterations 5
GAMG:  Solving for p_rgh, Initial residual = 0.013491817, Final residual = 7.4121013e-05, No Iterations 3
time step continuity errors : sum local = 0.0001361565, global = -3.1364086e-05, cumulative = 0.00075568225
Min/max rho:1.1381873 1.2016463
ExecutionTime = 2.84 s  ClockTime = 3 s
fluid  Inflow      : 3.7117944e-05 [kg/s]
fluid  Outflow     : 3.7091786e-05 [kg/s]
fluid  EnergyInflow  : 10.966949 [W]
fluid  EnergyOutflow : 10.96802 [W]
fluid  rho max/avg/min : 1.2016458 1.1786732 1.1389963
fluid  T   max/avg/min : 309.80517 299.48857 293.69417
fluid  P   max/avg/min : 101324.91 101316.14 101307.38
fluid  Prg max/avg/min : 101325 101324.81 101324.06
fluid  U   max/avg/min : 0.070181355 0.022010915 0
fluid  K average:  0.026851425
fluid  nu average: 1.5642724e-05

Solving for solid region cilcen
DICPCG:  Solving for h, Initial residual = 0.77817328, Final residual = 1.4739723e-16, No Iterations 1
Tcilcen  max/avg/min : 310.1099 310.10118 309.9017
ExecutionTime = 2.85 s  ClockTime = 3 s

Time = 43


Solving for fluid region fluid
DILUPBiCG:  Solving for Ux, Initial residual = 0.013035325, Final residual = 2.8481272e-05, No Iterations 1
DILUPBiCG:  Solving for Uy, Initial residual = 0.013267053, Final residual = 2.3495533e-05, No Iterations 1
DILUPBiCG:  Solving for Uz, Initial residual = 0.016545809, Final residual = 2.6190148e-05, No Iterations 1
DILUPBiCG:  Solving for h, Initial residual = 0.0036311721, Final residual = 1.2970484e-05, No Iterations 5
GAMG:  Solving for p_rgh, Initial residual = 0.01329228, Final residual = 4.5407349e-05, No Iterations 3
time step continuity errors : sum local = 8.4255855e-05, global = 2.2664555e-05, cumulative = 0.0007783468
Min/max rho:1.1379461 1.2016463
ExecutionTime = 2.91 s  ClockTime = 3 s
fluid  Inflow      : 3.7777093e-05 [kg/s]
fluid  Outflow     : 3.7795996e-05 [kg/s]
fluid  EnergyInflow  : 11.161703 [W]
fluid  EnergyOutflow : 11.176607 [W]
fluid  rho max/avg/min : 1.2016458 1.1784334 1.1387502
fluid  T   max/avg/min : 309.87218 299.55047 293.69398
fluid  P   max/avg/min : 101324.91 101316.14 101307.38
fluid  Prg max/avg/min : 101325 101324.81 101324.06
fluid  U   max/avg/min : 0.071231855 0.022681743 0
fluid  K average:  0.026855679
fluid  nu average: 1.5648473e-05

Solving for solid region cilcen
DICPCG:  Solving for h, Initial residual = 0.76913905, Final residual = 9.2290027e-17, No Iterations 1
Tcilcen  max/avg/min : 310.17686 310.1676 309.95562
ExecutionTime = 2.91 s  ClockTime = 3 s

Time = 44


Solving for fluid region fluid
DILUPBiCG:  Solving for Ux, Initial residual = 0.0105286, Final residual = 2.2391228e-05, No Iterations 1
DILUPBiCG:  Solving for Uy, Initial residual = 0.010825258, Final residual = 1.8915871e-05, No Iterations 1
DILUPBiCG:  Solving for Uz, Initial residual = 0.016700791, Final residual = 2.7930258e-05, No Iterations 1
DILUPBiCG:  Solving for h, Initial residual = 0.0035633366, Final residual = 7.5595846e-07, No Iterations 6
GAMG:  Solving for p_rgh, Initial residual = 0.012627766, Final residual = 5.1779096e-05, No Iterations 3
time step continuity errors : sum local = 9.7944857e-05, global = 4.0925211e-06, cumulative = 0.00078243932
Min/max rho:1.1377006 1.2016463
ExecutionTime = 2.98 s  ClockTime = 3 s
fluid  Inflow      : 3.8489395e-05 [kg/s]
fluid  Outflow     : 3.8492808e-05 [kg/s]
fluid  EnergyInflow  : 11.372161 [W]
fluid  EnergyOutflow : 11.383018 [W]
fluid  rho max/avg/min : 1.2016458 1.1781994 1.1385019
fluid  T   max/avg/min : 309.93981 299.6109 293.69379
fluid  P   max/avg/min : 101324.91 101316.14 101307.38
fluid  Prg max/avg/min : 101325 101324.81 101324.06
fluid  U   max/avg/min : 0.072361839 0.023350025 0
fluid  K average:  0.026859833
fluid  nu average: 1.5654089e-05

Solving for solid region cilcen
DICPCG:  Solving for h, Initial residual = 0.75806055, Final residual = 1.5808295e-16, No Iterations 1
Tcilcen  max/avg/min : 310.24444 310.23461 310.00948
ExecutionTime = 2.98 s  ClockTime = 3 s

Time = 45


Solving for fluid region fluid
DILUPBiCG:  Solving for Ux, Initial residual = 0.011759661, Final residual = 2.8323097e-05, No Iterations 1
DILUPBiCG:  Solving for Uy, Initial residual = 0.011906468, Final residual = 2.1769267e-05, No Iterations 1
DILUPBiCG:  Solving for Uz, Initial residual = 0.015935604, Final residual = 2.511668e-05, No Iterations 1
DILUPBiCG:  Solving for h, Initial residual = 0.0034974803, Final residual = 5.5314339e-07, No Iterations 6
GAMG:  Solving for p_rgh, Initial residual = 0.012493682, Final residual = 4.0247156e-05, No Iterations 3
time step continuity errors : sum local = 7.7052589e-05, global = -6.5562197e-06, cumulative = 0.0007758831
Min/max rho:1.137453 1.2016463
ExecutionTime = 3.03 s  ClockTime = 4 s
fluid  Inflow      : 3.9189781e-05 [kg/s]
fluid  Outflow     : 3.9184314e-05 [kg/s]
fluid  EnergyInflow  : 11.579099 [W]
fluid  EnergyOutflow : 11.587869 [W]
fluid  rho max/avg/min : 1.2016458 1.1779708 1.1382509
fluid  T   max/avg/min : 310.00822 299.67001 293.69362
fluid  P   max/avg/min : 101324.91 101316.14 101307.37
fluid  Prg max/avg/min : 101325 101324.81 101324.05
fluid  U   max/avg/min : 0.073433006 0.024033811 0
fluid  K average:  0.026863895
fluid  nu average: 1.5659583e-05

Solving for solid region cilcen
DICPCG:  Solving for h, Initial residual = 0.74751289, Final residual = 7.769182e-17, No Iterations 1
Tcilcen  max/avg/min : 310.31281 310.30238 310.0634
ExecutionTime = 3.03 s  ClockTime = 4 s

Time = 46


Solving for fluid region fluid
DILUPBiCG:  Solving for Ux, Initial residual = 0.010015977, Final residual = 4.0226479e-05, No Iterations 1
DILUPBiCG:  Solving for Uy, Initial residual = 0.010168966, Final residual = 1.8844722e-05, No Iterations 1
DILUPBiCG:  Solving for Uz, Initial residual = 0.016474757, Final residual = 2.7615316e-05, No Iterations 1
DILUPBiCG:  Solving for h, Initial residual = 0.0034318834, Final residual = 1.7433997e-05, No Iterations 5
GAMG:  Solving for p_rgh, Initial residual = 0.012012261, Final residual = 3.5305052e-05, No Iterations 3
time step continuity errors : sum local = 6.9192541e-05, global = -1.3672584e-05, cumulative = 0.00076221052
Min/max rho:1.1372026 1.2016463
ExecutionTime = 3.1 s  ClockTime = 4 s
fluid  Inflow      : 3.9877911e-05 [kg/s]
fluid  Outflow     : 3.9866508e-05 [kg/s]
fluid  EnergyInflow  : 11.782415 [W]
fluid  EnergyOutflow : 11.789976 [W]
fluid  rho max/avg/min : 1.2016458 1.1777467 1.1379958
fluid  T   max/avg/min : 310.07777 299.72802 293.69344
fluid  P   max/avg/min : 101324.91 101316.14 101307.38
fluid  Prg max/avg/min : 101325 101324.81 101324.05
fluid  U   max/avg/min : 0.074536744 0.024712127 0
fluid  K average:  0.02686788
fluid  nu average: 1.5664978e-05

Solving for solid region cilcen
DICPCG:  Solving for h, Initial residual = 0.73803034, Final residual = 9.0324394e-17, No Iterations 1
Tcilcen  max/avg/min : 310.38231 310.37124 310.11762
ExecutionTime = 3.1 s  ClockTime = 4 s

Time = 47


Solving for fluid region fluid
DILUPBiCG:  Solving for Ux, Initial residual = 0.011385212, Final residual = 3.5745114e-05, No Iterations 1
DILUPBiCG:  Solving for Uy, Initial residual = 0.011425122, Final residual = 2.2340108e-05, No Iterations 1
DILUPBiCG:  Solving for Uz, Initial residual = 0.015529384, Final residual = 2.4386182e-05, No Iterations 1
DILUPBiCG:  Solving for h, Initial residual = 0.0033689526, Final residual = 6.2474734e-06, No Iterations 5
GAMG:  Solving for p_rgh, Initial residual = 0.012016098, Final residual = 3.1036528e-05, No Iterations 3
time step continuity errors : sum local = 6.1337131e-05, global = 2.2110891e-05, cumulative = 0.00078432141
Min/max rho:1.1369482 1.2016463
ExecutionTime = 3.17 s  ClockTime = 4 s
fluid  Inflow      : 4.0521254e-05 [kg/s]
fluid  Outflow     : 4.0539694e-05 [kg/s]
fluid  EnergyInflow  : 11.972499 [W]
fluid  EnergyOutflow : 11.989427 [W]
fluid  rho max/avg/min : 1.2016458 1.1775283 1.1377394
fluid  T   max/avg/min : 310.14771 299.78462 293.69327
fluid  P   max/avg/min : 101324.91 101316.14 101307.38
fluid  Prg max/avg/min : 101325 101324.8 101324.05
fluid  U   max/avg/min : 0.07552901 0.025392959 0
fluid  K average:  0.026871767
fluid  nu average: 1.5670242e-05

Solving for solid region cilcen
DICPCG:  Solving for h, Initial residual = 0.72597025, Final residual = 1.2953148e-16, No Iterations 1
Tcilcen  max/avg/min : 310.4522 310.44047 310.17153
ExecutionTime = 3.17 s  ClockTime = 4 s

Time = 48


Solving for fluid region fluid
DILUPBiCG:  Solving for Ux, Initial residual = 0.0093488649, Final residual = 6.1554169e-05, No Iterations 1
DILUPBiCG:  Solving for Uy, Initial residual = 0.0093527955, Final residual = 1.1576022e-07, No Iterations 2
DILUPBiCG:  Solving for Uz, Initial residual = 0.015580366, Final residual = 2.6172496e-05, No Iterations 1
DILUPBiCG:  Solving for h, Initial residual = 0.0033074909, Final residual = 3.9711237e-06, No Iterations 5
GAMG:  Solving for p_rgh, Initial residual = 0.011560703, Final residual = 3.3210322e-05, No Iterations 3
time step continuity errors : sum local = 6.6667786e-05, global = -1.2492915e-05, cumulative = 0.00077182849
Min/max rho:1.1366924 1.2016463
ExecutionTime = 3.23 s  ClockTime = 4 s
fluid  Inflow      : 4.121276e-05 [kg/s]
fluid  Outflow     : 4.1202341e-05 [kg/s]
fluid  EnergyInflow  : 12.176813 [W]
fluid  EnergyOutflow : 12.185769 [W]
fluid  rho max/avg/min : 1.2016458 1.1773149 1.1374811
fluid  T   max/avg/min : 310.21821 299.83997 293.6931
fluid  P   max/avg/min : 101324.91 101316.14 101307.38
fluid  Prg max/avg/min : 101325 101324.8 101324.04
fluid  U   max/avg/min : 0.076617646 0.02606643 0
fluid  K average:  0.026875567
fluid  nu average: 1.5675393e-05

Solving for solid region cilcen
DICPCG:  Solving for h, Initial residual = 0.7144641, Final residual = 8.2767623e-17, No Iterations 1
Tcilcen  max/avg/min : 310.52264 310.5102 310.22527
ExecutionTime = 3.23 s  ClockTime = 4 s

Time = 49


Solving for fluid region fluid
DILUPBiCG:  Solving for Ux, Initial residual = 0.011452346, Final residual = 2.2285678e-05, No Iterations 1
DILUPBiCG:  Solving for Uy, Initial residual = 0.011382353, Final residual = 1.8402756e-05, No Iterations 1
[...]
Tcilcen  max/avg/min : 317.10258 315.67301 310.27424
ExecutionTime = 136.83 s  ClockTime = 139 s

Time = 1989


Solving for fluid region fluid
DILUPBiCG:  Solving for Ux, Initial residual = 0.0054773665, Final residual = 1.4356541e-05, No Iterations 1
DILUPBiCG:  Solving for Uy, Initial residual = 0.0047792978, Final residual = 9.9677632e-06, No Iterations 1
DILUPBiCG:  Solving for Uz, Initial residual = 0.0018773065, Final residual = 6.0025079e-06, No Iterations 1
DILUPBiCG:  Solving for h, Initial residual = 4.3119337e-06, Final residual = 3.1781753e-08, No Iterations 6
GAMG:  Solving for p_rgh, Initial residual = 0.016111722, Final residual = 6.5020029e-05, No Iterations 4
time step continuity errors : sum local = 0.00015936298, global = 6.9976547e-06, cumulative = -0.0059433909
Min/max rho:1.1128352 1.2016463
ExecutionTime = 136.89 s  ClockTime = 139 s
fluid  Inflow      : 2.1548169e-05 [kg/s]
fluid  Outflow     : 2.1554005e-05 [kg/s]
fluid  EnergyInflow  : 6.3666694 [W]
fluid  EnergyOutflow : 6.4218622 [W]
fluid  rho max/avg/min : 1.2016457 1.1734194 1.1135241
fluid  T   max/avg/min : 316.88783 300.93616 293.69219
fluid  P   max/avg/min : 101324.91 101316.14 101307.38
fluid  Prg max/avg/min : 101324.99 101324.76 101323.69
fluid  U   max/avg/min : 0.50498455 0.15501389 0
fluid  K average:  0.026949385
fluid  nu average: 1.5780037e-05

Solving for solid region cilcen
DICPCG:  Solving for h, Initial residual = 2.7398674e-05, Final residual = 3.2478678e-21, No Iterations 1
Tcilcen  max/avg/min : 317.10247 315.67295 310.27422
ExecutionTime = 136.89 s  ClockTime = 139 s

Time = 1990


Solving for fluid region fluid
DILUPBiCG:  Solving for Ux, Initial residual = 0.0053302191, Final residual = 1.4204739e-05, No Iterations 1
DILUPBiCG:  Solving for Uy, Initial residual = 0.0047151308, Final residual = 1.0054746e-05, No Iterations 1
DILUPBiCG:  Solving for Uz, Initial residual = 0.0019422236, Final residual = 6.2329582e-06, No Iterations 1
DILUPBiCG:  Solving for h, Initial residual = 4.5971015e-06, Final residual = 3.3571262e-08, No Iterations 5
Radiation solver iter: 0
GAMG:  Solving for ILambda_0_0, Initial residual = 0.00026117211, Final residual = 6.3515984e-15, No Iterations 1
GAMG:  Solving for ILambda_1_0, Initial residual = 0.00026117211, Final residual = 5.618984e-14, No Iterations 1
GAMG:  Solving for ILambda_2_0, Initial residual = 0.069834786, Final residual = 4.402151e-12, No Iterations 1
GAMG:  Solving for ILambda_3_0, Initial residual = 0.069834786, Final residual = 1.0306931e-12, No Iterations 1
Radiation solver iter: 1
GAMG:  Solving for ILambda_0_0, Initial residual = 6.3518623e-15, Final residual = 6.3518623e-15, No Iterations 0
GAMG:  Solving for ILambda_1_0, Initial residual = 5.6192174e-14, Final residual = 5.6192174e-14, No Iterations 0
GAMG:  Solving for ILambda_2_0, Initial residual = 4.5442561e-12, Final residual = 4.5442561e-12, No Iterations 0
GAMG:  Solving for ILambda_3_0, Initial residual = 1.0639647e-12, Final residual = 1.0639647e-12, No Iterations 0
GAMG:  Solving for p_rgh, Initial residual = 0.015273668, Final residual = 0.00011274069, No Iterations 4
time step continuity errors : sum local = 0.00029517252, global = 2.8784165e-05, cumulative = -0.0059146067
Min/max rho:1.1128353 1.2016469
ExecutionTime = 136.97 s  ClockTime = 139 s
fluid  Inflow      : 2.146054e-05 [kg/s]
fluid  Outflow     : 2.1484546e-05 [kg/s]
fluid  EnergyInflow  : 6.3407782 [W]
fluid  EnergyOutflow : 6.4013482 [W]
fluid  rho max/avg/min : 1.2016469 1.1734194 1.1135243
fluid  T   max/avg/min : 316.88772 300.93609 293.69206
fluid  P   max/avg/min : 101324.92 101316.17 101307.42
fluid  Prg max/avg/min : 101325.01 101324.79 101323.73
fluid  U   max/avg/min : 0.50499705 0.15492234 -0.0029844784
fluid  K average:  0.02694938
fluid  nu average: 1.5780034e-05

Solving for solid region cilcen
DICPCG:  Solving for h, Initial residual = 2.6042852e-05, Final residual = 3.022171e-21, No Iterations 1
Tcilcen  max/avg/min : 317.10234 315.67289 310.27421
ExecutionTime = 136.97 s  ClockTime = 139 s

Time = 1991


Solving for fluid region fluid
DILUPBiCG:  Solving for Ux, Initial residual = 0.0060915908, Final residual = 1.571518e-05, No Iterations 1
DILUPBiCG:  Solving for Uy, Initial residual = 0.0052641275, Final residual = 1.0905361e-05, No Iterations 1
DILUPBiCG:  Solving for Uz, Initial residual = 0.0014546467, Final residual = 4.547106e-06, No Iterations 1
DILUPBiCG:  Solving for h, Initial residual = 4.0952831e-06, Final residual = 3.1457374e-08, No Iterations 5
GAMG:  Solving for p_rgh, Initial residual = 0.018456444, Final residual = 0.00017974557, No Iterations 3
time step continuity errors : sum local = 0.00042535524, global = 0.00017401733, cumulative = -0.0057405894
Min/max rho:1.1128362 1.2016463
ExecutionTime = 137.04 s  ClockTime = 139 s
fluid  Inflow      : 2.095767e-05 [kg/s]
fluid  Outflow     : 2.11028e-05 [kg/s]
fluid  EnergyInflow  : 6.1921992 [W]
fluid  EnergyOutflow : 6.2885556 [W]
fluid  rho max/avg/min : 1.2016457 1.17342 1.1135251
fluid  T   max/avg/min : 316.88759 300.93603 293.69202
fluid  P   max/avg/min : 101324.91 101316.15 101307.41
fluid  Prg max/avg/min : 101325 101324.77 101323.71
fluid  U   max/avg/min : 0.50500566 0.15485247 0
fluid  K average:  0.026949375
fluid  nu average: 1.5780023e-05

Solving for solid region cilcen
DICPCG:  Solving for h, Initial residual = 2.655714e-05, Final residual = 7.0024486e-21, No Iterations 1
Tcilcen  max/avg/min : 317.10222 315.67284 310.27419
ExecutionTime = 137.04 s  ClockTime = 139 s

Time = 1992


Solving for fluid region fluid
DILUPBiCG:  Solving for Ux, Initial residual = 0.0053421485, Final residual = 1.4640562e-05, No Iterations 1
DILUPBiCG:  Solving for Uy, Initial residual = 0.0046761334, Final residual = 1.0352346e-05, No Iterations 1
DILUPBiCG:  Solving for Uz, Initial residual = 0.0022289525, Final residual = 7.3364789e-06, No Iterations 1
DILUPBiCG:  Solving for h, Initial residual = 3.6930867e-06, Final residual = 6.2484745e-08, No Iterations 4
GAMG:  Solving for p_rgh, Initial residual = 0.016988832, Final residual = 0.00013563317, No Iterations 3
time step continuity errors : sum local = 0.00035742838, global = -0.00014712333, cumulative = -0.0058877127
Min/max rho:1.1128364 1.2016475
ExecutionTime = 137.11 s  ClockTime = 139 s
fluid  Inflow      : 2.1065364e-05 [kg/s]
fluid  Outflow     : 2.0942663e-05 [kg/s]
fluid  EnergyInflow  : 6.2240187 [W]
fluid  EnergyOutflow : 6.2412349 [W]
fluid  rho max/avg/min : 1.2016475 1.17342 1.1135254
fluid  T   max/avg/min : 316.88747 300.93598 293.69212
fluid  P   max/avg/min : 101324.92 101316.17 101307.42
fluid  Prg max/avg/min : 101325.01 101324.79 101323.72
fluid  U   max/avg/min : 0.5050144 0.15473347 -0.016908954
fluid  K average:  0.026949373
fluid  nu average: 1.5780023e-05

Solving for solid region cilcen
DICPCG:  Solving for h, Initial residual = 2.6730316e-05, Final residual = 2.6352566e-21, No Iterations 1
Tcilcen  max/avg/min : 317.1021 315.67278 310.27417
ExecutionTime = 137.11 s  ClockTime = 139 s

Time = 1993


Solving for fluid region fluid
DILUPBiCG:  Solving for Ux, Initial residual = 0.0096837936, Final residual = 2.6960105e-05, No Iterations 1
DILUPBiCG:  Solving for Uy, Initial residual = 0.0084521984, Final residual = 1.9081728e-05, No Iterations 1
DILUPBiCG:  Solving for Uz, Initial residual = 0.0013660514, Final residual = 4.4114089e-06, No Iterations 1
DILUPBiCG:  Solving for h, Initial residual = 3.4563107e-06, Final residual = 5.6939739e-08, No Iterations 4
GAMG:  Solving for p_rgh, Initial residual = 0.015727996, Final residual = 6.4620047e-05, No Iterations 4
time step continuity errors : sum local = 0.0001681807, global = 4.4780467e-06, cumulative = -0.0058832347
Min/max rho:1.112837 1.2016463
ExecutionTime = 137.19 s  ClockTime = 139 s
fluid  Inflow      : 2.0899757e-05 [kg/s]
fluid  Outflow     : 2.0903492e-05 [kg/s]
fluid  EnergyInflow  : 6.1750882 [W]
fluid  EnergyOutflow : 6.2296565 [W]
fluid  rho max/avg/min : 1.2016457 1.1734203 1.1135259
fluid  T   max/avg/min : 316.88735 300.93595 293.69212
fluid  P   max/avg/min : 101324.91 101316.15 101307.4
fluid  Prg max/avg/min : 101325 101324.77 101323.7
fluid  U   max/avg/min : 0.50502533 0.15478763 0
fluid  K average:  0.02694937
fluid  nu average: 1.5780016e-05

Solving for solid region cilcen
DICPCG:  Solving for h, Initial residual = 2.7003239e-05, Final residual = 6.3189679e-21, No Iterations 1
Tcilcen  max/avg/min : 317.10198 315.67272 310.27415
ExecutionTime = 137.19 s  ClockTime = 139 s

Time = 1994


Solving for fluid region fluid
DILUPBiCG:  Solving for Ux, Initial residual = 0.021488673, Final residual = 7.5701789e-05, No Iterations 1
DILUPBiCG:  Solving for Uy, Initial residual = 0.018826033, Final residual = 5.4942026e-05, No Iterations 1
DILUPBiCG:  Solving for Uz, Initial residual = 0.0012797055, Final residual = 4.4880949e-06, No Iterations 1
DILUPBiCG:  Solving for h, Initial residual = 3.2638523e-06, Final residual = 4.7302718e-08, No Iterations 4
GAMG:  Solving for p_rgh, Initial residual = 0.015666618, Final residual = 5.6087348e-05, No Iterations 4
time step continuity errors : sum local = 0.0001420149, global = -1.0168319e-06, cumulative = -0.0058842515
Min/max rho:1.1128372 1.2016464
ExecutionTime = 137.26 s  ClockTime = 139 s
fluid  Inflow      : 2.091435e-05 [kg/s]
fluid  Outflow     : 2.0913502e-05 [kg/s]
fluid  EnergyInflow  : 6.1793999 [W]
fluid  EnergyOutflow : 6.2326135 [W]
fluid  rho max/avg/min : 1.2016464 1.1734202 1.1135261
fluid  T   max/avg/min : 316.88723 300.93591 293.69215
fluid  P   max/avg/min : 101324.92 101316.17 101307.42
fluid  Prg max/avg/min : 101325.01 101324.79 101323.72
fluid  U   max/avg/min : 0.50503699 0.15473904 0
fluid  K average:  0.026949367
fluid  nu average: 1.5780016e-05

Solving for solid region cilcen
DICPCG:  Solving for h, Initial residual = 2.7141004e-05, Final residual = 2.996666e-21, No Iterations 1
Tcilcen  max/avg/min : 317.10186 315.67266 310.27413
ExecutionTime = 137.26 s  ClockTime = 139 s

Time = 1995


Solving for fluid region fluid
DILUPBiCG:  Solving for Ux, Initial residual = 0.015862686, Final residual = 4.4679964e-05, No Iterations 1
DILUPBiCG:  Solving for Uy, Initial residual = 0.013850816, Final residual = 3.1266528e-05, No Iterations 1
DILUPBiCG:  Solving for Uz, Initial residual = 0.0011905675, Final residual = 3.5824941e-06, No Iterations 1
DILUPBiCG:  Solving for h, Initial residual = 3.0608026e-06, Final residual = 6.8866509e-08, No Iterations 3
GAMG:  Solving for p_rgh, Initial residual = 0.013773912, Final residual = 5.8405476e-05, No Iterations 4
time step continuity errors : sum local = 0.00014333325, global = -1.1691603e-05, cumulative = -0.0058959431
Min/max rho:1.1128378 1.2016463
ExecutionTime = 137.34 s  ClockTime = 139 s
fluid  Inflow      : 2.0841539e-05 [kg/s]
fluid  Outflow     : 2.0831788e-05 [kg/s]
fluid  EnergyInflow  : 6.157887 [W]
fluid  EnergyOutflow : 6.2084699 [W]
fluid  rho max/avg/min : 1.2016457 1.1734206 1.1135268
fluid  T   max/avg/min : 316.8871 300.93587 293.69213
fluid  P   max/avg/min : 101324.91 101316.15 101307.4
fluid  Prg max/avg/min : 101325 101324.77 101323.71
fluid  U   max/avg/min : 0.50504826 0.15477317 0
fluid  K average:  0.026949365
fluid  nu average: 1.5780009e-05

Solving for solid region cilcen
DICPCG:  Solving for h, Initial residual = 2.7312694e-05, Final residual = 6.0096123e-21, No Iterations 1
Tcilcen  max/avg/min : 317.10174 315.6726 310.27411
ExecutionTime = 137.34 s  ClockTime = 139 s

Time = 1996


Solving for fluid region fluid
DILUPBiCG:  Solving for Ux, Initial residual = 0.014454981, Final residual = 4.4577998e-05, No Iterations 1
DILUPBiCG:  Solving for Uy, Initial residual = 0.012639896, Final residual = 3.1358115e-05, No Iterations 1
DILUPBiCG:  Solving for Uz, Initial residual = 0.0012941181, Final residual = 4.2808111e-06, No Iterations 1
DILUPBiCG:  Solving for h, Initial residual = 3.2372508e-06, Final residual = 8.6548297e-08, No Iterations 4
GAMG:  Solving for p_rgh, Initial residual = 0.013257589, Final residual = 5.7297052e-05, No Iterations 4
time step continuity errors : sum local = 0.00014596512, global = 9.7030105e-06, cumulative = -0.0058862401
Min/max rho:1.1128381 1.2016466
ExecutionTime = 137.4 s  ClockTime = 139 s
fluid  Inflow      : 2.0822091e-05 [kg/s]
fluid  Outflow     : 2.0830183e-05 [kg/s]
fluid  EnergyInflow  : 6.1521407 [W]
fluid  EnergyOutflow : 6.2079951 [W]
fluid  rho max/avg/min : 1.2016466 1.1734205 1.113527
fluid  T   max/avg/min : 316.88698 300.93583 293.69218
fluid  P   max/avg/min : 101324.92 101316.17 101307.42
fluid  Prg max/avg/min : 101325.01 101324.79 101323.72
fluid  U   max/avg/min : 0.50505968 0.15470949 0
fluid  K average:  0.026949362
fluid  nu average: 1.5780009e-05

Solving for solid region cilcen
DICPCG:  Solving for h, Initial residual = 2.7453912e-05, Final residual = 6.5259012e-21, No Iterations 1
Tcilcen  max/avg/min : 317.10161 315.67254 310.27409
ExecutionTime = 137.4 s  ClockTime = 139 s

Time = 1997


Solving for fluid region fluid
DILUPBiCG:  Solving for Ux, Initial residual = 0.0088057558, Final residual = 2.4326489e-05, No Iterations 1
DILUPBiCG:  Solving for Uy, Initial residual = 0.0076393186, Final residual = 1.68606e-05, No Iterations 1
DILUPBiCG:  Solving for Uz, Initial residual = 0.0011981767, Final residual = 3.6148753e-06, No Iterations 1
DILUPBiCG:  Solving for h, Initial residual = 3.0535557e-06, Final residual = 3.4697364e-08, No Iterations 4
GAMG:  Solving for p_rgh, Initial residual = 0.01512276, Final residual = 6.3407915e-05, No Iterations 4
time step continuity errors : sum local = 0.00015500723, global = -8.6292303e-06, cumulative = -0.0058948693
Min/max rho:1.1128387 1.2016463
ExecutionTime = 137.47 s  ClockTime = 139 s
fluid  Inflow      : 2.0777806e-05 [kg/s]
fluid  Outflow     : 2.0770609e-05 [kg/s]
fluid  EnergyInflow  : 6.1390563 [W]
fluid  EnergyOutflow : 6.1903927 [W]
fluid  rho max/avg/min : 1.2016457 1.1734208 1.1135276
fluid  T   max/avg/min : 316.88686 300.9358 293.69217
fluid  P   max/avg/min : 101324.91 101316.15 101307.4
fluid  Prg max/avg/min : 101325 101324.77 101323.7
fluid  U   max/avg/min : 0.50507109 0.15475822 0
fluid  K average:  0.02694936
fluid  nu average: 1.5780003e-05

Solving for solid region cilcen
DICPCG:  Solving for h, Initial residual = 2.7591224e-05, Final residual = 3.1646427e-21, No Iterations 1
Tcilcen  max/avg/min : 317.10149 315.67248 310.27406
ExecutionTime = 137.47 s  ClockTime = 139 s

Time = 1998


Solving for fluid region fluid
DILUPBiCG:  Solving for Ux, Initial residual = 0.0086963925, Final residual = 2.6873995e-05, No Iterations 1
DILUPBiCG:  Solving for Uy, Initial residual = 0.0076525559, Final residual = 1.9037985e-05, No Iterations 1
DILUPBiCG:  Solving for Uz, Initial residual = 0.0013087182, Final residual = 4.2339724e-06, No Iterations 1
DILUPBiCG:  Solving for h, Initial residual = 3.2567214e-06, Final residual = 7.7281966e-08, No Iterations 4
GAMG:  Solving for p_rgh, Initial residual = 0.014264196, Final residual = 6.091869e-05, No Iterations 4
time step continuity errors : sum local = 0.00015824595, global = 7.6476305e-06, cumulative = -0.0058872217
Min/max rho:1.1128389 1.2016469
ExecutionTime = 137.54 s  ClockTime = 139 s
fluid  Inflow      : 2.0771343e-05 [kg/s]
fluid  Outflow     : 2.0777721e-05 [kg/s]
fluid  EnergyInflow  : 6.1371466 [W]
fluid  EnergyOutflow : 6.1924938 [W]
fluid  rho max/avg/min : 1.2016469 1.1734207 1.1135279
fluid  T   max/avg/min : 316.88673 300.93577 293.69222
fluid  P   max/avg/min : 101324.92 101316.17 101307.42
fluid  Prg max/avg/min : 101325.01 101324.79 101323.72
fluid  U   max/avg/min : 0.50508272 0.15469519 -0.00060092375
fluid  K average:  0.026949358
fluid  nu average: 1.5780003e-05

Solving for solid region cilcen
DICPCG:  Solving for h, Initial residual = 2.772707e-05, Final residual = 4.1583371e-21, No Iterations 1
Tcilcen  max/avg/min : 317.10137 315.67242 310.27404
ExecutionTime = 137.54 s  ClockTime = 139 s

Time = 1999


Solving for fluid region fluid
DILUPBiCG:  Solving for Ux, Initial residual = 0.0067788401, Final residual = 1.8604069e-05, No Iterations 1
DILUPBiCG:  Solving for Uy, Initial residual = 0.005883096, Final residual = 1.2835767e-05, No Iterations 1
DILUPBiCG:  Solving for Uz, Initial residual = 0.0012793171, Final residual = 3.8626035e-06, No Iterations 1
DILUPBiCG:  Solving for h, Initial residual = 3.0945718e-06, Final residual = 4.1827329e-08, No Iterations 4
GAMG:  Solving for p_rgh, Initial residual = 0.016137651, Final residual = 6.8847207e-05, No Iterations 4
time step continuity errors : sum local = 0.00016874773, global = -1.0755792e-05, cumulative = -0.0058979775
Min/max rho:1.1128396 1.2016463
ExecutionTime = 137.6 s  ClockTime = 139 s
fluid  Inflow      : 2.0726968e-05 [kg/s]
fluid  Outflow     : 2.0717998e-05 [kg/s]
fluid  EnergyInflow  : 6.1240356 [W]
fluid  EnergyOutflow : 6.1748476 [W]
fluid  rho max/avg/min : 1.2016457 1.1734211 1.1135285
fluid  T   max/avg/min : 316.88661 300.93574 293.69221
fluid  P   max/avg/min : 101324.91 101316.15 101307.4
fluid  Prg max/avg/min : 101324.99 101324.77 101323.7
fluid  U   max/avg/min : 0.50509418 0.15474953 0
fluid  K average:  0.026949356
fluid  nu average: 1.5779997e-05

Solving for solid region cilcen
DICPCG:  Solving for h, Initial residual = 2.7861911e-05, Final residual = 1.2317252e-20, No Iterations 1
Tcilcen  max/avg/min : 317.10124 315.67236 310.27402
ExecutionTime = 137.6 s  ClockTime = 139 s

Time = 2000


Solving for fluid region fluid
DILUPBiCG:  Solving for Ux, Initial residual = 0.006603229, Final residual = 1.9652186e-05, No Iterations 1
DILUPBiCG:  Solving for Uy, Initial residual = 0.0058303103, Final residual = 1.4029904e-05, No Iterations 1
DILUPBiCG:  Solving for Uz, Initial residual = 0.0014138573, Final residual = 4.4690519e-06, No Iterations 1
DILUPBiCG:  Solving for h, Initial residual = 3.2954021e-06, Final residual = 7.9340691e-08, No Iterations 4
Radiation solver iter: 0
GAMG:  Solving for ILambda_0_0, Initial residual = 0.00027959703, Final residual = 8.1104969e-15, No Iterations 1
GAMG:  Solving for ILambda_1_0, Initial residual = 0.00027959703, Final residual = 4.2780106e-14, No Iterations 1
GAMG:  Solving for ILambda_2_0, Initial residual = 0.050014862, Final residual = 4.6005113e-12, No Iterations 1
GAMG:  Solving for ILambda_3_0, Initial residual = 0.050014862, Final residual = 1.0617655e-12, No Iterations 1
Radiation solver iter: 1
GAMG:  Solving for ILambda_0_0, Initial residual = 8.1108733e-15, Final residual = 8.1108733e-15, No Iterations 0
GAMG:  Solving for ILambda_1_0, Initial residual = 4.2782091e-14, Final residual = 4.2782091e-14, No Iterations 0
GAMG:  Solving for ILambda_2_0, Initial residual = 4.5432862e-12, Final residual = 4.5432862e-12, No Iterations 0
GAMG:  Solving for ILambda_3_0, Initial residual = 1.0485583e-12, Final residual = 1.0485583e-12, No Iterations 0
GAMG:  Solving for p_rgh, Initial residual = 0.015071279, Final residual = 6.5750916e-05, No Iterations 4
time step continuity errors : sum local = 0.00017378097, global = 8.8533623e-06, cumulative = -0.0058891241
Min/max rho:1.1128398 1.2016472
ExecutionTime = 137.69 s  ClockTime = 139 s
fluid  Inflow      : 2.071804e-05 [kg/s]
fluid  Outflow     : 2.0725423e-05 [kg/s]
fluid  EnergyInflow  : 6.1213976 [W]
fluid  EnergyOutflow : 6.1770415 [W]
fluid  rho max/avg/min : 1.2016472 1.1734209 1.1135288
fluid  T   max/avg/min : 316.88648 300.9357 293.69225
fluid  P   max/avg/min : 101324.92 101316.17 101307.42
fluid  Prg max/avg/min : 101325.01 101324.79 101323.72
fluid  U   max/avg/min : 0.50510575 0.15468228 -0.0066222553
fluid  K average:  0.026949354
fluid  nu average: 1.5779997e-05

Solving for solid region cilcen
DICPCG:  Solving for h, Initial residual = 2.374912e-05, Final residual = 2.9261391e-21, No Iterations 1
Tcilcen  max/avg/min : 317.10115 315.67231 310.274
ExecutionTime = 137.77 s  ClockTime = 140 s

End

