/*---------------------------------------------------------------------------*\
| =========                 |                                                 |
| \\      /  F ield         | OpenFOAM: The Open Source CFD Toolbox           |
|  \\    /   O peration     | Version:  4.0                                   |
|   \\  /    A nd           | Web:      www.OpenFOAM.org                      |
|    \\/     M anipulation  |                                                 |
\*---------------------------------------------------------------------------*/
Build  : 4.0-665f1db4c1f1
Exec   : pupoBuoyantSimpleFoam
Date   : Sep 20 2016
Time   : 20:07:45
Host   : "FAB2000"
PID    : 30452
Case   : /home/pedro/Documents/ThesisProject/OpenFoam/validation1rod/bug
nProcs : 1
sigFpe : Enabling floating point exception trapping (FOAM_SIGFPE).
fileModificationChecking : Monitoring run-time modified files using timeStampMaster
allowSystemOperations : Allowing user-supplied system call operations

// * * * * * * * * * * * * * * * * * * * * * * * * * * * * * * * * * * * * * //
Create time

Create mesh for time = 0


SIMPLE: convergence criteria
    field p_rgh	 tolerance 1e-05
    field Uz	 tolerance 1e-05
    field h	 tolerance 1e-05

Reading thermophysical properties

Selecting thermodynamics package 
{
    type            heRhoThermo;
    mixture         pureMixture;
    transport       sutherland;
    thermo          hConst;
    equationOfState perfectGas;
    specie          specie;
    energy          sensibleEnthalpy;
}


Reading g

Reading hRef
Calculating field g.h

Selecting turbulence model type laminar
No MRF models present

Selecting radiationModel none
 
rho max/avg/min : 1.176411 1.1763447 1.1762784
T   max/avg/min : 300 300 300
P   max/avg/min : 101324.94 101319.23 101313.52
Prg max/avg/min : 101325 101325 101325
U   max/avg/min : 0 0 0
 
sngrad(rho) :-0.00013397437 -0.00013397437 -0.00013397437
 
No finite volume options present


Starting Iteration loop

Iteration Number = 1

DILUPBiCG:  Solving for Ux, Initial residual = 3.1070802e-14, Final residual = 3.1070802e-14, No Iterations 0
DILUPBiCG:  Solving for Uy, Initial residual = 2.3139692e-11, Final residual = 2.3139692e-11, No Iterations 0
DILUPBiCG:  Solving for Uz, Initial residual = 1, Final residual = 2.1943334e-05, No Iterations 1
DILUPBiCG:  Solving for h, Initial residual = 1, Final residual = 4.0277798e-05, No Iterations 1
GAMG:  Solving for p_rgh, Initial residual = 0.99956402, Final residual = 1.1759088e-05, No Iterations 1
time step continuity errors : sum local = 6.884115e-07, global = -1.5429389e-07, cumulative = -1.5429389e-07
ExecutionTime = 0.16 s  ClockTime = 1 s
Inflow      : -7.2545693e-14 [kg/s]
Outflow     : -8.622559e-13 [kg/s]
EnergyInflow  : -2.189429e-08 [W]
EnergyOutflow : -2.6022883e-07 [W]
EnergyBalance : -2.3833454e-07 [W]
rho max/avg/min : 1.176411 1.176309 1.1749886
T   max/avg/min : 300.32932 300.00912 300
P   max/avg/min : 101324.94 101319.23 101313.52
Prg max/avg/min : 101325 101325 101324.99
U   max/avg/min : 5.0779815e-08 -1.6184068e-09 -5.553663e-07
Prg max-min : 0.013218168
 
sngrad(rho) :0.25783312 0.0070157889 -0.00013397437
 
Iteration Number = 2

DILUPBiCG:  Solving for Ux, Initial residual = 0.35434682, Final residual = 1.1348483e-05, No Iterations 1
DILUPBiCG:  Solving for Uy, Initial residual = 1.2244318e-09, Final residual = 1.2244318e-09, No Iterations 0
DILUPBiCG:  Solving for Uz, Initial residual = 0.38498501, Final residual = 1.1716221e-05, No Iterations 1
DILUPBiCG:  Solving for h, Initial residual = 0.16631638, Final residual = 2.4206725e-06, No Iterations 1
GAMG:  Solving for p_rgh, Initial residual = 0.15529456, Final residual = 5.5298836e-06, No Iterations 1
time step continuity errors : sum local = 8.3532639e-07, global = -2.9392116e-07, cumulative = -4.4821505e-07
ExecutionTime = 0.21 s  ClockTime = 1 s
Inflow      : -3.1663454e-13 [kg/s]
Outflow     : -1.820988e-12 [kg/s]
EnergyInflow  : -9.5560303e-08 [W]
EnergyOutflow : -5.4957418e-07 [W]
EnergyBalance : -4.5401388e-07 [W]
rho max/avg/min : 1.176411 1.176275 1.1742865
T   max/avg/min : 300.5089 300.0178 300
P   max/avg/min : 101324.94 101319.23 101313.52
Prg max/avg/min : 101325 101325 101324.98
U   max/avg/min : 1.6489178e-07 -2.6969996e-09 -6.6317146e-07
Prg max-min : 0.020063714
 
sngrad(rho) :0.39825311 0.013808653 -0.00013397441
 
Iteration Number = 3

DILUPBiCG:  Solving for Ux, Initial residual = 0.41082136, Final residual = 1.6500366e-05, No Iterations 1
DILUPBiCG:  Solving for Uy, Initial residual = 1.706338e-09, Final residual = 1.706338e-09, No Iterations 0
DILUPBiCG:  Solving for Uz, Initial residual = 0.28752592, Final residual = 6.1286877e-06, No Iterations 1
DILUPBiCG:  Solving for h, Initial residual = 0.095542853, Final residual = 1.0984604e-06, No Iterations 1
GAMG:  Solving for p_rgh, Initial residual = 0.081608425, Final residual = 3.8941736e-06, No Iterations 1
time step continuity errors : sum local = 7.1467386e-07, global = -1.7116669e-07, cumulative = -6.1938174e-07
ExecutionTime = 0.26 s  ClockTime = 1 s
Inflow      : -5.8962934e-13 [kg/s]
Outflow     : -1.4656983e-12 [kg/s]
EnergyInflow  : -1.7795013e-07 [W]
EnergyOutflow : -4.4234692e-07 [W]
EnergyBalance : -2.6439679e-07 [W]
rho max/avg/min : 1.176411 1.176241 1.1737534
T   max/avg/min : 300.64537 300.02649 300
P   max/avg/min : 101324.94 101319.23 101313.52
Prg max/avg/min : 101325 101325 101324.97
U   max/avg/min : 3.1614682e-07 -1.3816502e-09 -6.1504615e-07
Prg max-min : 0.025259201
 
sngrad(rho) :0.10648035 0.0082861302 -0.00013397441
 
Iteration Number = 4

DILUPBiCG:  Solving for Ux, Initial residual = 0.43001446, Final residual = 1.5888405e-05, No Iterations 1
DILUPBiCG:  Solving for Uy, Initial residual = 2.1296555e-09, Final residual = 2.1296555e-09, No Iterations 0
DILUPBiCG:  Solving for Uz, Initial residual = 0.22357066, Final residual = 3.4228058e-06, No Iterations 1
DILUPBiCG:  Solving for h, Initial residual = 0.066875526, Final residual = 7.8637888e-07, No Iterations 1
GAMG:  Solving for p_rgh, Initial residual = 0.059029003, Final residual = 3.8198987e-06, No Iterations 1
time step continuity errors : sum local = 7.2945763e-07, global = -1.4170834e-07, cumulative = -7.6109008e-07
ExecutionTime = 0.32 s  ClockTime = 1 s
Inflow      : -7.8769612e-13 [kg/s]
Outflow     : -1.5129907e-12 [kg/s]
EnergyInflow  : -2.3772669e-07 [W]
EnergyOutflow : -4.5661817e-07 [W]
EnergyBalance : -2.1889149e-07 [W]
rho max/avg/min : 1.176411 1.1762066 1.1733019
T   max/avg/min : 300.76105 300.03528 300
P   max/avg/min : 101324.94 101319.23 101313.52
Prg max/avg/min : 101325 101325 101324.97
U   max/avg/min : 5.0177907e-07 3.3846822e-09 -6.105711e-07
Prg max-min : 0.029658142
 
sngrad(rho) :0.090159352 0.0079525786 -0.00013397441
 
Iteration Number = 5

DILUPBiCG:  Solving for Ux, Initial residual = 0.39390943, Final residual = 1.3221097e-05, No Iterations 1
DILUPBiCG:  Solving for Uy, Initial residual = 2.5940729e-09, Final residual = 2.5940729e-09, No Iterations 0
DILUPBiCG:  Solving for Uz, Initial residual = 0.17473998, Final residual = 2.209987e-06, No Iterations 1
DILUPBiCG:  Solving for h, Initial residual = 0.051519168, Final residual = 6.5895572e-07, No Iterations 1
GAMG:  Solving for p_rgh, Initial residual = 0.047567109, Final residual = 3.8764868e-06, No Iterations 1
time step continuity errors : sum local = 7.5002864e-07, global = -1.0991515e-07, cumulative = -8.7100523e-07
ExecutionTime = 0.38 s  ClockTime = 1 s
Inflow      : -9.4090424e-13 [kg/s]
Outflow     : -1.5034743e-12 [kg/s]
EnergyInflow  : -2.839649e-07 [W]
EnergyOutflow : -4.5374327e-07 [W]
EnergyBalance : -1.6977837e-07 [W]
rho max/avg/min : 1.176411 1.1761718 1.1729008
T   max/avg/min : 300.86393 300.04417 300
P   max/avg/min : 101324.94 101319.23 101313.52
Prg max/avg/min : 101325 101325 101324.97
U   max/avg/min : 7.3770522e-07 1.2219199e-08 -6.2766996e-07
Prg max-min : 0.033566132
 
sngrad(rho) :0.080103775 0.0076911948 -0.00013397441
 
Iteration Number = 6

DILUPBiCG:  Solving for Ux, Initial residual = 0.37068323, Final residual = 9.1593018e-06, No Iterations 1
DILUPBiCG:  Solving for Uy, Initial residual = 3.1674075e-09, Final residual = 3.1674075e-09, No Iterations 0
DILUPBiCG:  Solving for Uz, Initial residual = 0.14093626, Final residual = 1.5664587e-06, No Iterations 1
DILUPBiCG:  Solving for h, Initial residual = 0.041927117, Final residual = 5.899101e-07, No Iterations 1
GAMG:  Solving for p_rgh, Initial residual = 0.040432073, Final residual = 3.8742072e-06, No Iterations 1
time step continuity errors : sum local = 7.6889942e-07, global = -9.3847048e-08, cumulative = -9.6485228e-07
ExecutionTime = 0.44 s  ClockTime = 1 s
Inflow      : -1.0554666e-12 [kg/s]
Outflow     : -1.5357966e-12 [kg/s]
EnergyInflow  : -3.1853983e-07 [W]
EnergyOutflow : -4.6349376e-07 [W]
EnergyBalance : -1.4495392e-07 [W]
rho max/avg/min : 1.176411 1.1761366 1.1725345
T   max/avg/min : 300.95789 300.05318 300
P   max/avg/min : 101324.94 101319.23 101313.52
Prg max/avg/min : 101325 101325 101324.96
U   max/avg/min : 1.0016567e-06 2.5782875e-08 -6.4427977e-07
Prg max-min : 0.037134047
 
sngrad(rho) :0.073107647 0.0077387558 -0.00013397441
 
Iteration Number = 7

DILUPBiCG:  Solving for Ux, Initial residual = 0.32815054, Final residual = 7.5721288e-06, No Iterations 1
DILUPBiCG:  Solving for Uy, Initial residual = 3.8001349e-09, Final residual = 3.8001349e-09, No Iterations 0
DILUPBiCG:  Solving for Uz, Initial residual = 0.11780504, Final residual = 1.1861745e-06, No Iterations 1
DILUPBiCG:  Solving for h, Initial residual = 0.035356551, Final residual = 5.5191479e-07, No Iterations 1
GAMG:  Solving for p_rgh, Initial residual = 0.0361084, Final residual = 4.0475953e-06, No Iterations 1
time step continuity errors : sum local = 7.9811614e-07, global = -7.7456184e-08, cumulative = -1.0423085e-06
ExecutionTime = 0.5 s  ClockTime = 1 s
Inflow      : -1.1655501e-12 [kg/s]
Outflow     : -1.5619879e-12 [kg/s]
EnergyInflow  : -3.5176301e-07 [W]
EnergyOutflow : -4.7139198e-07 [W]
EnergyBalance : -1.1962897e-07 [W]
rho max/avg/min : 1.176411 1.1761009 1.1721945
T   max/avg/min : 301.0452 300.0623 300
P   max/avg/min : 101324.94 101319.23 101313.52
Prg max/avg/min : 101325 101325 101324.96
U   max/avg/min : 1.2893344e-06 4.4767217e-08 -6.7416951e-07
Prg max-min : 0.040446984
 
sngrad(rho) :0.067878334 0.0077593924 -0.00013397441
 
Iteration Number = 8

DILUPBiCG:  Solving for Ux, Initial residual = 0.31206741, Final residual = 7.7784321e-06, No Iterations 1
DILUPBiCG:  Solving for Uy, Initial residual = 4.7116142e-09, Final residual = 4.7116142e-09, No Iterations 0
DILUPBiCG:  Solving for Uz, Initial residual = 0.10104764, Final residual = 9.3827831e-07, No Iterations 1
DILUPBiCG:  Solving for h, Initial residual = 0.03057144, Final residual = 5.2733563e-07, No Iterations 1
GAMG:  Solving for p_rgh, Initial residual = 0.032305883, Final residual = 4.1503092e-06, No Iterations 1
time step continuity errors : sum local = 8.3130053e-07, global = -7.0265859e-08, cumulative = -1.1125743e-06
ExecutionTime = 0.55 s  ClockTime = 1 s
Inflow      : -1.2541557e-12 [kg/s]
Outflow     : -1.6137919e-12 [kg/s]
EnergyInflow  : -3.7850419e-07 [W]
EnergyOutflow : -4.8701775e-07 [W]
EnergyBalance : -1.0851356e-07 [W]
rho max/avg/min : 1.176411 1.1760649 1.1718749
T   max/avg/min : 301.12729 300.07153 300
P   max/avg/min : 101324.94 101319.23 101313.52
Prg max/avg/min : 101325 101325 101324.96
U   max/avg/min : 1.6170622e-06 6.9782552e-08 -7.0651688e-07
Prg max-min : 0.043559377
 
sngrad(rho) :0.063778811 0.0077668844 -0.00013397441
 
Iteration Number = 9

DILUPBiCG:  Solving for Ux, Initial residual = 0.28037173, Final residual = 5.9602415e-06, No Iterations 1
DILUPBiCG:  Solving for Uy, Initial residual = 5.7050762e-09, Final residual = 5.7050762e-09, No Iterations 0
DILUPBiCG:  Solving for Uz, Initial residual = 0.088465551, Final residual = 7.7335312e-07, No Iterations 1
DILUPBiCG:  Solving for h, Initial residual = 0.026924828, Final residual = 5.0924868e-07, No Iterations 1
GAMG:  Solving for p_rgh, Initial residual = 0.030118443, Final residual = 4.3159861e-06, No Iterations 1
time step continuity errors : sum local = 8.6544702e-07, global = -6.852503e-08, cumulative = -1.1810994e-06
ExecutionTime = 0.61 s  ClockTime = 1 s
Inflow      : -1.3369353e-12 [kg/s]
Outflow     : -1.6876615e-12 [kg/s]
EnergyInflow  : -4.0348706e-07 [W]
EnergyOutflow : -5.0930019e-07 [W]
EnergyBalance : -1.0581313e-07 [W]
rho max/avg/min : 1.176411 1.1760284 1.171572
T   max/avg/min : 301.20515 300.08087 300
P   max/avg/min : 101324.94 101319.23 101313.52
Prg max/avg/min : 101325 101325 101324.95
U   max/avg/min : 1.9877882e-06 1.013767e-07 -7.6319751e-07
Prg max-min : 0.046509356
 
sngrad(rho) :0.060453412 0.0077696309 -0.00013397441
 
Iteration Number = 10

DILUPBiCG:  Solving for Ux, Initial residual = 0.26479586, Final residual = 6.9846251e-06, No Iterations 1
DILUPBiCG:  Solving for Uy, Initial residual = 6.7340892e-09, Final residual = 6.7340892e-09, No Iterations 0
DILUPBiCG:  Solving for Uz, Initial residual = 0.078717582, Final residual = 6.575028e-07, No Iterations 1
DILUPBiCG:  Solving for h, Initial residual = 0.02405842, Final residual = 4.9916617e-07, No Iterations 1
GAMG:  Solving for p_rgh, Initial residual = 0.028311261, Final residual = 4.536426e-06, No Iterations 1
time step continuity errors : sum local = 9.0884057e-07, global = -6.8562128e-08, cumulative = -1.2496615e-06
ExecutionTime = 0.66 s  ClockTime = 1 s
Inflow      : -1.4388299e-12 [kg/s]
Outflow     : -1.789746e-12 [kg/s]
EnergyInflow  : -4.3423887e-07 [W]
EnergyOutflow : -5.4009469e-07 [W]
EnergyBalance : -1.0585582e-07 [W]
rho max/avg/min : 1.176411 1.1759915 1.1712829
T   max/avg/min : 301.27949 300.09031 300
P   max/avg/min : 101324.94 101319.23 101313.52
Prg max/avg/min : 101325 101325 101324.95
U   max/avg/min : 2.3837216e-06 1.4009852e-07 -8.2642271e-07
Prg max-min : 0.049323887
 
sngrad(rho) :0.057685774 0.0079347781 -0.00013397441
 
Iteration Number = 11

DILUPBiCG:  Solving for Ux, Initial residual = 0.2407098, Final residual = 4.9482876e-06, No Iterations 1
DILUPBiCG:  Solving for Uy, Initial residual = 7.6614474e-09, Final residual = 7.6614474e-09, No Iterations 0
DILUPBiCG:  Solving for Uz, Initial residual = 0.070944154, Final residual = 5.7358101e-07, No Iterations 1
DILUPBiCG:  Solving for h, Initial residual = 0.021741624, Final residual = 4.9187057e-07, No Iterations 1
GAMG:  Solving for p_rgh, Initial residual = 0.026882355, Final residual = 4.803439e-06, No Iterations 1
time step continuity errors : sum local = 9.6238057e-07, global = -7.1711982e-08, cumulative = -1.3213735e-06
ExecutionTime = 0.72 s  ClockTime = 1 s
Inflow      : -1.5526993e-12 [kg/s]
Outflow     : -1.9197371e-12 [kg/s]
EnergyInflow  : -4.6860465e-07 [W]
EnergyOutflow : -5.7930767e-07 [W]
EnergyBalance : -1.1070303e-07 [W]
rho max/avg/min : 1.176411 1.1759542 1.1710056
T   max/avg/min : 301.35085 300.09985 300
P   max/avg/min : 101324.94 101319.23 101313.52
Prg max/avg/min : 101325 101325 101324.95
U   max/avg/min : 2.8027624e-06 1.8648081e-07 -9.0711714e-07
Prg max-min : 0.052022732
 
sngrad(rho) :0.055335701 0.0079153273 -0.00013397441
 
Iteration Number = 12

DILUPBiCG:  Solving for Ux, Initial residual = 0.22009931, Final residual = 5.961509e-06, No Iterations 1
DILUPBiCG:  Solving for Uy, Initial residual = 8.7457517e-09, Final residual = 8.7457517e-09, No Iterations 0
DILUPBiCG:  Solving for Uz, Initial residual = 0.064634852, Final residual = 5.1226434e-07, No Iterations 1
DILUPBiCG:  Solving for h, Initial residual = 0.019829359, Final residual = 4.8615446e-07, No Iterations 1
GAMG:  Solving for p_rgh, Initial residual = 0.025572891, Final residual = 4.9949915e-06, No Iterations 1
time step continuity errors : sum local = 1.007081e-06, global = -8.0444022e-08, cumulative = -1.4018175e-06
ExecutionTime = 0.76 s  ClockTime = 1 s
Inflow      : -1.6804646e-12 [kg/s]
Outflow     : -2.0921948e-12 [kg/s]
EnergyInflow  : -5.071642e-07 [W]
EnergyOutflow : -6.3133292e-07 [W]
EnergyBalance : -1.2416872e-07 [W]
rho max/avg/min : 1.176411 1.1759166 1.1707384
T   max/avg/min : 301.41963 300.10949 300
P   max/avg/min : 101324.94 101319.23 101313.52
Prg max/avg/min : 101325 101325 101324.95
U   max/avg/min : 3.2512191e-06 2.40991e-07 -1.0197705e-06
Prg max-min : 0.054621729
 
sngrad(rho) :0.053307825 0.0080499794 -0.00013397441
 
Iteration Number = 13

DILUPBiCG:  Solving for Ux, Initial residual = 0.19581669, Final residual = 4.1576745e-06, No Iterations 1
DILUPBiCG:  Solving for Uy, Initial residual = 1.0168447e-08, Final residual = 1.0168447e-08, No Iterations 0
DILUPBiCG:  Solving for Uz, Initial residual = 0.059435363, Final residual = 4.6760411e-07, No Iterations 1
DILUPBiCG:  Solving for h, Initial residual = 0.018228023, Final residual = 4.8275795e-07, No Iterations 1
GAMG:  Solving for p_rgh, Initial residual = 0.024786644, Final residual = 5.2608741e-06, No Iterations 1
time step continuity errors : sum local = 1.0569609e-06, global = -9.0602312e-08, cumulative = -1.4924198e-06
ExecutionTime = 0.81 s  ClockTime = 1 s
Inflow      : -1.8441147e-12 [kg/s]
Outflow     : -2.3078374e-12 [kg/s]
EnergyInflow  : -5.5655383e-07 [W]
EnergyOutflow : -6.9638659e-07 [W]
EnergyBalance : -1.3983276e-07 [W]
rho max/avg/min : 1.176411 1.1758786 1.17048
T   max/avg/min : 301.48615 300.11922 300
P   max/avg/min : 101324.94 101319.23 101313.52
Prg max/avg/min : 101325 101325 101324.94
U   max/avg/min : 3.7552424e-06 3.0402742e-07 -1.1555212e-06
Prg max-min : 0.05713283
 
sngrad(rho) :0.051534716 0.0081762024 -0.00013397441
 
Iteration Number = 14

DILUPBiCG:  Solving for Ux, Initial residual = 0.18393344, Final residual = 5.0796256e-06, No Iterations 1
DILUPBiCG:  Solving for Uy, Initial residual = 1.1135819e-08, Final residual = 1.1135819e-08, No Iterations 0
DILUPBiCG:  Solving for Uz, Initial residual = 0.055097876, Final residual = 4.3533611e-07, No Iterations 1
DILUPBiCG:  Solving for h, Initial residual = 0.016861083, Final residual = 4.8152633e-07, No Iterations 1
GAMG:  Solving for p_rgh, Initial residual = 0.023800935, Final residual = 5.4391333e-06, No Iterations 1
time step continuity errors : sum local = 1.1045222e-06, global = -1.0622742e-07, cumulative = -1.5986472e-06
ExecutionTime = 0.86 s  ClockTime = 1 s
Inflow      : -2.0252454e-12 [kg/s]
Outflow     : -2.5689408e-12 [kg/s]
EnergyInflow  : -6.1121905e-07 [W]
EnergyOutflow : -7.7515498e-07 [W]
EnergyBalance : -1.6393592e-07 [W]
rho max/avg/min : 1.176411 1.1758402 1.1702295
T   max/avg/min : 301.55069 300.12905 300
P   max/avg/min : 101324.94 101319.23 101313.52
Prg max/avg/min : 101325 101325 101324.94
U   max/avg/min : 4.2845784e-06 3.7592643e-07 -1.3216188e-06
Prg max-min : 0.059565616
 
sngrad(rho) :0.049967167 0.0082939421 -0.00013397441
 
Iteration Number = 15

DILUPBiCG:  Solving for Ux, Initial residual = 0.16271676, Final residual = 3.4381795e-06, No Iterations 1
DILUPBiCG:  Solving for Uy, Initial residual = 1.2485971e-08, Final residual = 1.2485971e-08, No Iterations 0
DILUPBiCG:  Solving for Uz, Initial residual = 0.051433864, Final residual = 4.1238571e-07, No Iterations 1
DILUPBiCG:  Solving for h, Initial residual = 0.01568697, Final residual = 4.8086353e-07, No Iterations 1
GAMG:  Solving for p_rgh, Initial residual = 0.023315935, Final residual = 5.8550405e-06, No Iterations 1
time step continuity errors : sum local = 1.1833441e-06, global = -1.27208e-07, cumulative = -1.7258552e-06
ExecutionTime = 0.91 s  ClockTime = 1 s
Inflow      : -2.2411845e-12 [kg/s]
Outflow     : -2.8922632e-12 [kg/s]
EnergyInflow  : -6.7638949e-07 [W]
EnergyOutflow : -8.7269511e-07 [W]
EnergyBalance : -1.9630562e-07 [W]
rho max/avg/min : 1.176411 1.1758015 1.169986
T   max/avg/min : 301.61345 300.13897 300
P   max/avg/min : 101324.94 101319.23 101313.52
Prg max/avg/min : 101325 101325 101324.94
U   max/avg/min : 4.8379848e-06 4.5695009e-07 -1.5232677e-06
Prg max-min : 0.061928426
 
sngrad(rho) :0.04856832 0.0084033193 -0.00013397441
 
Iteration Number = 16

DILUPBiCG:  Solving for Ux, Initial residual = 0.16022708, Final residual = 4.363062e-06, No Iterations 1
DILUPBiCG:  Solving for Uy, Initial residual = 1.4704284e-08, Final residual = 1.4704284e-08, No Iterations 0
DILUPBiCG:  Solving for Uz, Initial residual = 0.048310016, Final residual = 3.9605837e-07, No Iterations 1
DILUPBiCG:  Solving for h, Initial residual = 0.014661641, Final residual = 4.8049748e-07, No Iterations 1
GAMG:  Solving for p_rgh, Initial residual = 0.022706027, Final residual = 6.42469e-06, No Iterations 1
time step continuity errors : sum local = 1.2993283e-06, global = -1.5081796e-07, cumulative = -1.8766732e-06
ExecutionTime = 0.97 s  ClockTime = 1 s
Inflow      : -2.5144741e-12 [kg/s]
Outflow     : -3.2863937e-12 [kg/s]
EnergyInflow  : -7.5886828e-07 [W]
EnergyOutflow : -9.9159851e-07 [W]
EnergyBalance : -2.3273023e-07 [W]
rho max/avg/min : 1.176411 1.1757625 1.1697488
T   max/avg/min : 301.67462 300.14897 300
P   max/avg/min : 101324.94 101319.23 101313.52
Prg max/avg/min : 101325 101325 101324.94
U   max/avg/min : 5.4148883e-06 5.4727516e-07 -1.7633305e-06
Prg max-min : 0.064227459
 
sngrad(rho) :0.047309944 0.0085045695 -0.00013397441
 
Iteration Number = 17

DILUPBiCG:  Solving for Ux, Initial residual = 0.13934076, Final residual = 2.9581915e-06, No Iterations 1
DILUPBiCG:  Solving for Uy, Initial residual = 1.6671913e-08, Final residual = 1.6671913e-08, No Iterations 0
DILUPBiCG:  Solving for Uz, Initial residual = 0.045621184, Final residual = 3.8511795e-07, No Iterations 1
DILUPBiCG:  Solving for h, Initial residual = 0.013763149, Final residual = 4.8137964e-07, No Iterations 1
GAMG:  Solving for p_rgh, Initial residual = 0.02232459, Final residual = 7.2216615e-06, No Iterations 1
time step continuity errors : sum local = 1.4529718e-06, global = -1.7959972e-07, cumulative = -2.0562729e-06
ExecutionTime = 1.02 s  ClockTime = 1 s
Inflow      : -2.838614e-12 [kg/s]
Outflow     : -3.7578451e-12 [kg/s]
EnergyInflow  : -8.5669371e-07 [W]
EnergyOutflow : -1.1338301e-06 [W]
EnergyBalance : -2.7713635e-07 [W]
rho max/avg/min : 1.176411 1.1757231 1.1695173
T   max/avg/min : 301.73433 300.15906 300
P   max/avg/min : 101324.94 101319.23 101313.52
Prg max/avg/min : 101325 101325 101324.93
U   max/avg/min : 6.0466662e-06 6.4704827e-07 -2.0474341e-06
Prg max-min : 0.066468514
 
sngrad(rho) :0.046170004 0.0085979997 -0.00013397441
 
Iteration Number = 18

DILUPBiCG:  Solving for Ux, Initial residual = 0.13441783, Final residual = 3.71198e-06, No Iterations 1
DILUPBiCG:  Solving for Uy, Initial residual = 1.877687e-08, Final residual = 1.877687e-08, No Iterations 0
DILUPBiCG:  Solving for Uz, Initial residual = 0.043277227, Final residual = 3.7774661e-07, No Iterations 1
DILUPBiCG:  Solving for h, Initial residual = 0.012966266, Final residual = 4.8315322e-07, No Iterations 1
GAMG:  Solving for p_rgh, Initial residual = 0.021990717, Final residual = 8.1221421e-06, No Iterations 1
time step continuity errors : sum local = 1.6385341e-06, global = -2.1708058e-07, cumulative = -2.2733535e-06
ExecutionTime = 1.06 s  ClockTime = 2 s
Inflow      : -3.1982855e-12 [kg/s]
Outflow     : -4.3093519e-12 [kg/s]
EnergyInflow  : -9.6524256e-07 [W]
EnergyOutflow : -1.3002143e-06 [W]
EnergyBalance : -3.3497174e-07 [W]
rho max/avg/min : 1.176411 1.1756835 1.169291
T   max/avg/min : 301.79273 300.16923 300
P   max/avg/min : 101324.94 101319.23 101313.52
Prg max/avg/min : 101325 101325 101324.93
U   max/avg/min : 6.7170287e-06 7.5637026e-07 -2.3791929e-06
Prg max-min : 0.068656228
 
sngrad(rho) :0.045131014 0.0088946548 -0.00013397441
 
Iteration Number = 19

DILUPBiCG:  Solving for Ux, Initial residual = 0.11478469, Final residual = 2.2996316e-06, No Iterations 1
DILUPBiCG:  Solving for Uy, Initial residual = 2.0188015e-08, Final residual = 2.0188015e-08, No Iterations 0
DILUPBiCG:  Solving for Uz, Initial residual = 0.041226891, Final residual = 3.7354949e-07, No Iterations 1
DILUPBiCG:  Solving for h, Initial residual = 0.012256038, Final residual = 4.8499898e-07, No Iterations 1
GAMG:  Solving for p_rgh, Initial residual = 0.021522389, Final residual = 9.0592079e-06, No Iterations 1
time step continuity errors : sum local = 1.8387968e-06, global = -2.6030095e-07, cumulative = -2.5336544e-06
ExecutionTime = 1.12 s  ClockTime = 2 s
Inflow      : -3.6334824e-12 [kg/s]
Outflow     : -4.9657602e-12 [kg/s]
EnergyInflow  : -1.096585e-06 [W]
EnergyOutflow : -1.4982491e-06 [W]
EnergyBalance : -4.0166407e-07 [W]
rho max/avg/min : 1.176411 1.1756435 1.1690694
T   max/avg/min : 301.84993 300.17948 300
P   max/avg/min : 101324.94 101319.23 101313.52
Prg max/avg/min : 101325 101325 101324.93
U   max/avg/min : 7.4130225e-06 8.7518955e-07 -2.7642198e-06
Prg max-min : 0.070795114
 
sngrad(rho) :0.0441789 0.0089731764 -0.0001339744
 
Iteration Number = 20

DILUPBiCG:  Solving for Ux, Initial residual = 0.10977048, Final residual = 3.1143689e-06, No Iterations 1
DILUPBiCG:  Solving for Uy, Initial residual = 2.3909895e-08, Final residual = 2.3909895e-08, No Iterations 0
DILUPBiCG:  Solving for Uz, Initial residual = 0.039432327, Final residual = 3.7296771e-07, No Iterations 1
DILUPBiCG:  Solving for h, Initial residual = 0.011619362, Final residual = 4.8690989e-07, No Iterations 1
GAMG:  Solving for p_rgh, Initial residual = 0.021350299, Final residual = 1.0147022e-05, No Iterations 1
time step continuity errors : sum local = 2.0529656e-06, global = -3.0806409e-07, cumulative = -2.8417185e-06
ExecutionTime = 1.17 s  ClockTime = 2 s
Inflow      : -4.147374e-12 [kg/s]
Outflow     : -5.7241141e-12 [kg/s]
EnergyInflow  : -1.2516775e-06 [W]
EnergyOutflow : -1.7270414e-06 [W]
EnergyBalance : -4.7536398e-07 [W]
rho max/avg/min : 1.176411 1.1756032 1.1688522
T   max/avg/min : 301.90601 300.18981 300
P   max/avg/min : 101324.94 101319.23 101313.52
Prg max/avg/min : 101325 101325 101324.93
U   max/avg/min : 8.1338683e-06 1.0033313e-06 -3.2115994e-06
Prg max-min : 0.072888563
 
sngrad(rho) :0.043302186 0.009297072 -0.00013397439
 
Iteration Number = 21

DILUPBiCG:  Solving for Ux, Initial residual = 0.09839386, Final residual = 1.9219782e-06, No Iterations 1
DILUPBiCG:  Solving for Uy, Initial residual = 2.6718521e-08, Final residual = 2.6718521e-08, No Iterations 0
DILUPBiCG:  Solving for Uz, Initial residual = 0.037851047, Final residual = 3.7499126e-07, No Iterations 1
DILUPBiCG:  Solving for h, Initial residual = 0.011043711, Final residual = 4.8917045e-07, No Iterations 1
GAMG:  Solving for p_rgh, Initial residual = 0.021203653, Final residual = 1.1275199e-05, No Iterations 1
time step continuity errors : sum local = 2.2911436e-06, global = -3.6583035e-07, cumulative = -3.2075489e-06
ExecutionTime = 1.22 s  ClockTime = 2 s
Inflow      : -4.7492195e-12 [kg/s]
Outflow     : -6.6216201e-12 [kg/s]
EnergyInflow  : -1.4333145e-06 [W]
EnergyOutflow : -1.9978197e-06 [W]
EnergyBalance : -5.6450522e-07 [W]
rho max/avg/min : 1.176411 1.1755626 1.1686391
T   max/avg/min : 301.96107 300.20022 300
P   max/avg/min : 101324.94 101319.23 101313.52
Prg max/avg/min : 101325 101325 101324.93
U   max/avg/min : 8.8945731e-06 1.140563e-06 -3.7250557e-06
Prg max-min : 0.074940166
 
sngrad(rho) :0.042491411 0.0093575535 -0.00013397438
 
Iteration Number = 22

DILUPBiCG:  Solving for Ux, Initial residual = 0.094555934, Final residual = 2.7029533e-06, No Iterations 1
DILUPBiCG:  Solving for Uy, Initial residual = 2.9605941e-08, Final residual = 2.9605941e-08, No Iterations 0
DILUPBiCG:  Solving for Uz, Initial residual = 0.036450369, Final residual = 3.7906284e-07, No Iterations 1
DILUPBiCG:  Solving for h, Initial residual = 0.010522748, Final residual = 4.9222807e-07, No Iterations 1
GAMG:  Solving for p_rgh, Initial residual = 0.020935061, Final residual = 1.2540643e-05, No Iterations 1
time step continuity errors : sum local = 2.5686516e-06, global = -4.2732495e-07, cumulative = -3.6348738e-06
ExecutionTime = 1.27 s  ClockTime = 2 s
Inflow      : -5.4511403e-12 [kg/s]
Outflow     : -7.6382839e-12 [kg/s]
EnergyInflow  : -1.6451542e-06 [W]
EnergyOutflow : -2.3045484e-06 [W]
EnergyBalance : -6.5939427e-07 [W]
rho max/avg/min : 1.176411 1.1755217 1.1684298
T   max/avg/min : 302.01517 300.21071 300
P   max/avg/min : 101324.94 101319.23 101313.52
Prg max/avg/min : 101325 101325 101324.92
U   max/avg/min : 9.7133374e-06 1.2866129e-06 -4.3048528e-06
Prg max-min : 0.07695186
 
sngrad(rho) :0.041738695 0.0097052509 -0.00013397436
 
Iteration Number = 23

DILUPBiCG:  Solving for Ux, Initial residual = 0.083939916, Final residual = 1.6647422e-06, No Iterations 1
DILUPBiCG:  Solving for Uy, Initial residual = 3.2536063e-08, Final residual = 3.2536063e-08, No Iterations 0
DILUPBiCG:  Solving for Uz, Initial residual = 0.035194889, Final residual = 3.8432322e-07, No Iterations 1
DILUPBiCG:  Solving for h, Initial residual = 0.010047677, Final residual = 4.9515088e-07, No Iterations 1
GAMG:  Solving for p_rgh, Initial residual = 0.020669563, Final residual = 1.4033655e-05, No Iterations 1
time step continuity errors : sum local = 2.8945067e-06, global = -4.9045665e-07, cumulative = -4.1253305e-06
ExecutionTime = 1.31 s  ClockTime = 2 s
Inflow      : -6.2795119e-12 [kg/s]
Outflow     : -8.7897774e-12 [kg/s]
EnergyInflow  : -1.8951567e-06 [W]
EnergyOutflow : -2.6519568e-06 [W]
EnergyBalance : -7.5680012e-07 [W]
rho max/avg/min : 1.176411 1.1754806 1.1682239
T   max/avg/min : 302.06839 300.22127 300
P   max/avg/min : 101324.94 101319.23 101313.52
Prg max/avg/min : 101325 101325 101324.92
U   max/avg/min : 1.0560328e-05 1.4410816e-06 -4.9679893e-06
Prg max-min : 0.078925107
 
sngrad(rho) :0.041037413 0.0097451308 -0.00013397432
 
Iteration Number = 24

DILUPBiCG:  Solving for Ux, Initial residual = 0.081643503, Final residual = 2.2318059e-06, No Iterations 1
DILUPBiCG:  Solving for Uy, Initial residual = 3.699534e-08, Final residual = 3.699534e-08, No Iterations 0
DILUPBiCG:  Solving for Uz, Initial residual = 0.034075892, Final residual = 3.9106439e-07, No Iterations 1
DILUPBiCG:  Solving for h, Initial residual = 0.009612686, Final residual = 4.9793016e-07, No Iterations 1
GAMG:  Solving for p_rgh, Initial residual = 0.020381459, Final residual = 1.5732895e-05, No Iterations 1
time step continuity errors : sum local = 3.292918e-06, global = -5.6848117e-07, cumulative = -4.6938116e-06
ExecutionTime = 1.37 s  ClockTime = 2 s
Inflow      : -7.235853e-12 [kg/s]
Outflow     : -1.0145465e-11 [kg/s]
EnergyInflow  : -2.1837804e-06 [W]
EnergyOutflow : -3.0609783e-06 [W]
EnergyBalance : -8.7719784e-07 [W]
rho max/avg/min : 1.176411 1.1754391 1.1680214
T   max/avg/min : 302.12078 300.2319 300
P   max/avg/min : 101324.94 101319.23 101313.52
Prg max/avg/min : 101325 101325 101324.92
U   max/avg/min : 1.1434554e-05 1.6034292e-06 -5.7194507e-06
Prg max-min : 0.080861571
 
sngrad(rho) :0.040381952 0.010113023 -0.00013397425
 
Iteration Number = 25

DILUPBiCG:  Solving for Ux, Initial residual = 0.072224277, Final residual = 1.5347032e-06, No Iterations 1
DILUPBiCG:  Solving for Uy, Initial residual = 4.3767153e-08, Final residual = 4.3767153e-08, No Iterations 0
DILUPBiCG:  Solving for Uz, Initial residual = 0.033070827, Final residual = 3.9890104e-07, No Iterations 1
DILUPBiCG:  Solving for h, Initial residual = 0.0092140024, Final residual = 5.0062211e-07, No Iterations 1
GAMG:  Solving for p_rgh, Initial residual = 0.020312021, Final residual = 1.7827238e-05, No Iterations 1
time step continuity errors : sum local = 3.7480732e-06, global = -6.5080537e-07, cumulative = -5.344617e-06
ExecutionTime = 1.42 s  ClockTime = 2 s
Inflow      : -8.3313259e-12 [kg/s]
Outflow     : -1.1662292e-11 [kg/s]
EnergyInflow  : -2.5143942e-06 [W]
EnergyOutflow : -3.5186176e-06 [W]
EnergyBalance : -1.0042235e-06 [W]
rho max/avg/min : 1.176411 1.1753974 1.1678219
T   max/avg/min : 302.17239 300.2426 300
P   max/avg/min : 101324.94 101319.23 101313.52
Prg max/avg/min : 101325 101325 101324.92
U   max/avg/min : 1.234289e-05 1.7730832e-06 -6.5604852e-06
Prg max-min : 0.082763566
 
sngrad(rho) :0.043860353 0.010515595 -0.00013397416
 
Iteration Number = 26

DILUPBiCG:  Solving for Ux, Initial residual = 0.07227648, Final residual = 2.0005418e-06, No Iterations 1
DILUPBiCG:  Solving for Uy, Initial residual = 5.1618623e-08, Final residual = 5.1618623e-08, No Iterations 0
DILUPBiCG:  Solving for Uz, Initial residual = 0.032159004, Final residual = 4.0720871e-07, No Iterations 1
DILUPBiCG:  Solving for h, Initial residual = 0.0088462421, Final residual = 5.039334e-07, No Iterations 1
GAMG:  Solving for p_rgh, Initial residual = 0.020158115, Final residual = 2.0075697e-05, No Iterations 1
time step continuity errors : sum local = 4.2719394e-06, global = -7.4107704e-07, cumulative = -6.0856941e-06
ExecutionTime = 1.47 s  ClockTime = 2 s
Inflow      : -9.5780797e-12 [kg/s]
Outflow     : -1.3371076e-11 [kg/s]
EnergyInflow  : -2.8906644e-06 [W]
EnergyOutflow : -4.0341752e-06 [W]
EnergyBalance : -1.1435108e-06 [W]
rho max/avg/min : 1.176411 1.1753555 1.1676253
T   max/avg/min : 302.22327 300.25337 300
P   max/avg/min : 101324.94 101319.23 101313.52
Prg max/avg/min : 101325 101325 101324.92
U   max/avg/min : 1.3319803e-05 1.9493467e-06 -7.5144849e-06
Prg max-min : 0.084632798
 
sngrad(rho) :0.049665297 0.010954097 -0.00013397401
 
Iteration Number = 27

DILUPBiCG:  Solving for Ux, Initial residual = 0.065369118, Final residual = 1.3168086e-06, No Iterations 1
DILUPBiCG:  Solving for Uy, Initial residual = 5.4779988e-08, Final residual = 5.4779988e-08, No Iterations 0
DILUPBiCG:  Solving for Uz, Initial residual = 0.031329265, Final residual = 4.1614818e-07, No Iterations 1
DILUPBiCG:  Solving for h, Initial residual = 0.0085059652, Final residual = 5.0714852e-07, No Iterations 1
GAMG:  Solving for p_rgh, Initial residual = 0.019966429, Final residual = 1.8557893e-05, No Iterations 26
time step continuity errors : sum local = 4.0054229e-06, global = -5.7119221e-08, cumulative = -6.1428133e-06
ExecutionTime = 1.57 s  ClockTime = 2 s
Inflow      : -1.5060799e-11 [kg/s]
Outflow     : -1.5353148e-11 [kg/s]
EnergyInflow  : -4.5453491e-06 [W]
EnergyOutflow : -4.6321959e-06 [W]
EnergyBalance : -8.6846824e-08 [W]
rho max/avg/min : 1.176411 1.1753133 1.1674314
T   max/avg/min : 302.27346 300.26421 300
P   max/avg/min : 101324.94 101319.23 101313.52
Prg max/avg/min : 101325 101325 101324.92
U   max/avg/min : 1.4265215e-05 1.5616338e-06 -8.7874239e-06
Prg max-min : 0.086354959
 
sngrad(rho) :0.047865076 0.010932081 -0.0001339738
 
Iteration Number = 28

DILUPBiCG:  Solving for Ux, Initial residual = 0.22027901, Final residual = 7.2824391e-06, No Iterations 1
DILUPBiCG:  Solving for Uy, Initial residual = 8.3774506e-08, Final residual = 8.3774506e-08, No Iterations 0
DILUPBiCG:  Solving for Uz, Initial residual = 0.07928197, Final residual = 3.1400191e-06, No Iterations 1
DILUPBiCG:  Solving for h, Initial residual = 0.0081910204, Final residual = 5.1019746e-07, No Iterations 1
GAMG:  Solving for p_rgh, Initial residual = 0.018838645, Final residual = 1.7313088e-05, No Iterations 1
time step continuity errors : sum local = 4.2996674e-06, global = 1.3377565e-06, cumulative = -4.8050567e-06
ExecutionTime = 1.62 s  ClockTime = 2 s
Inflow      : -2.4457451e-11 [kg/s]
Outflow     : -1.7610518e-11 [kg/s]
EnergyInflow  : -7.3812588e-06 [W]
EnergyOutflow : -5.3132855e-06 [W]
EnergyBalance : 2.0679734e-06 [W]
rho max/avg/min : 1.176411 1.1752708 1.1672401
T   max/avg/min : 302.32301 300.27511 300
P   max/avg/min : 101324.94 101319.23 101313.52
Prg max/avg/min : 101325 101325 101324.92
U   max/avg/min : 1.5237097e-05 6.2520629e-07 -1.3764102e-05
Prg max-min : 0.088221942
 
sngrad(rho) :0.053701329 0.011384053 -0.00013397348
 
Iteration Number = 29

DILUPBiCG:  Solving for Ux, Initial residual = 0.2688633, Final residual = 8.7581945e-06, No Iterations 1
DILUPBiCG:  Solving for Uy, Initial residual = 1.1459512e-07, Final residual = 1.1459512e-07, No Iterations 0
DILUPBiCG:  Solving for Uz, Initial residual = 0.078108814, Final residual = 3.0885838e-06, No Iterations 1
DILUPBiCG:  Solving for h, Initial residual = 0.0078979211, Final residual = 5.1305658e-07, No Iterations 1
GAMG:  Solving for p_rgh, Initial residual = 0.01972247, Final residual = 1.8118157e-05, No Iterations 30
time step continuity errors : sum local = 4.009956e-06, global = 1.522996e-07, cumulative = -4.6527571e-06
ExecutionTime = 1.72 s  ClockTime = 2 s
Inflow      : -2.1500399e-11 [kg/s]
Outflow     : -2.0720896e-11 [kg/s]
EnergyInflow  : -6.4888203e-06 [W]
EnergyOutflow : -6.2517996e-06 [W]
EnergyBalance : 2.3702066e-07 [W]
rho max/avg/min : 1.176411 1.1752281 1.1670512
T   max/avg/min : 302.37194 300.28608 300
P   max/avg/min : 101324.94 101319.23 101313.51
Prg max/avg/min : 101325 101324.99 101324.9
U   max/avg/min : 1.6280055e-05 1.0037614e-06 -1.3405969e-05
Prg max-min : 0.095640992
 
sngrad(rho) :0.059882903 0.011871231 -0.00013397303
 
Iteration Number = 30

DILUPBiCG:  Solving for Ux, Initial residual = 0.40313163, Final residual = 1.2997347e-05, No Iterations 1
DILUPBiCG:  Solving for Uy, Initial residual = 1.213851e-07, Final residual = 1.213851e-07, No Iterations 0
DILUPBiCG:  Solving for Uz, Initial residual = 0.097103239, Final residual = 3.6453766e-06, No Iterations 1
DILUPBiCG:  Solving for h, Initial residual = 0.0076246739, Final residual = 5.1577554e-07, No Iterations 1
GAMG:  Solving for p_rgh, Initial residual = 0.018622969, Final residual = 1.7195258e-05, No Iterations 32
time step continuity errors : sum local = 4.3145188e-06, global = 3.988391e-07, cumulative = -4.253918e-06
ExecutionTime = 1.83 s  ClockTime = 2 s
Inflow      : -2.5680267e-11 [kg/s]
Outflow     : -2.363892e-11 [kg/s]
EnergyInflow  : -7.7503046e-06 [W]
EnergyOutflow : -7.1322411e-06 [W]
EnergyBalance : 6.1806349e-07 [W]
rho max/avg/min : 1.176411 1.1751851 1.1668645
T   max/avg/min : 302.42029 300.29711 300
P   max/avg/min : 101324.94 101319.23 101313.52
Prg max/avg/min : 101325 101325 101324.91
U   max/avg/min : 1.7430934e-05 1.5294506e-06 -1.3779698e-05
Prg max-min : 0.091886546
 
sngrad(rho) :0.066404193 0.012394378 -0.00013397239
 
Iteration Number = 31

DILUPBiCG:  Solving for Ux, Initial residual = 0.45007128, Final residual = 1.4408797e-05, No Iterations 1
DILUPBiCG:  Solving for Uy, Initial residual = 1.1753319e-07, Final residual = 1.1753319e-07, No Iterations 0
DILUPBiCG:  Solving for Uz, Initial residual = 0.05730406, Final residual = 2.2794472e-06, No Iterations 1
DILUPBiCG:  Solving for h, Initial residual = 0.0073695069, Final residual = 5.1888675e-07, No Iterations 1
GAMG:  Solving for p_rgh, Initial residual = 0.018577915, Final residual = 9.3739345e-06, No Iterations 14
time step continuity errors : sum local = 2.402106e-06, global = 1.7817776e-07, cumulative = -4.0757403e-06
ExecutionTime = 1.91 s  ClockTime = 2 s
Inflow      : -2.7646312e-11 [kg/s]
Outflow     : -2.6734359e-11 [kg/s]
EnergyInflow  : -8.343657e-06 [W]
EnergyOutflow : -8.0662067e-06 [W]
EnergyBalance : 2.7745028e-07 [W]
rho max/avg/min : 1.176411 1.175142 1.1666802
T   max/avg/min : 302.46809 300.3082 300
P   max/avg/min : 101324.94 101319.23 101313.52
Prg max/avg/min : 101325 101324.99 101324.91
U   max/avg/min : 1.8557432e-05 1.1936378e-06 -1.6008922e-05
Prg max-min : 0.093687254
 
sngrad(rho) :0.073258838 0.012954163 -0.00013397149
 
Iteration Number = 32

DILUPBiCG:  Solving for Ux, Initial residual = 0.35732794, Final residual = 1.1903327e-05, No Iterations 1
DILUPBiCG:  Solving for Uy, Initial residual = 1.2801917e-07, Final residual = 1.2801917e-07, No Iterations 0
DILUPBiCG:  Solving for Uz, Initial residual = 0.050535163, Final residual = 1.868985e-06, No Iterations 1
DILUPBiCG:  Solving for h, Initial residual = 0.0071306248, Final residual = 5.2178406e-07, No Iterations 1
GAMG:  Solving for p_rgh, Initial residual = 0.018626552, Final residual = 1.8476784e-05, No Iterations 15
time step continuity errors : sum local = 4.7842822e-06, global = -3.0267047e-07, cumulative = -4.3784107e-06
ExecutionTime = 1.98 s  ClockTime = 2 s
Inflow      : -2.8647961e-11 [kg/s]
Outflow     : -3.0197096e-11 [kg/s]
EnergyInflow  : -8.6459547e-06 [W]
EnergyOutflow : -9.111004e-06 [W]
EnergyBalance : -4.6504929e-07 [W]
rho max/avg/min : 1.176411 1.1750985 1.1664979
T   max/avg/min : 302.51536 300.31936 300
P   max/avg/min : 101324.94 101319.23 101313.52
Prg max/avg/min : 101325 101325 101324.91
U   max/avg/min : 1.9732607e-05 1.0521689e-06 -1.8410791e-05
Prg max-min : 0.095465782
 
sngrad(rho) :0.080439866 0.013551142 -0.00013397028
 
Iteration Number = 33

DILUPBiCG:  Solving for Ux, Initial residual = 0.40164568, Final residual = 1.3409351e-05, No Iterations 1
DILUPBiCG:  Solving for Uy, Initial residual = 1.4332565e-07, Final residual = 1.4332565e-07, No Iterations 0
DILUPBiCG:  Solving for Uz, Initial residual = 0.042653298, Final residual = 1.5246001e-06, No Iterations 1
DILUPBiCG:  Solving for h, Initial residual = 0.0069064777, Final residual = 5.244391e-07, No Iterations 1
GAMG:  Solving for p_rgh, Initial residual = 0.018612014, Final residual = 1.7676398e-05, No Iterations 9
time step continuity errors : sum local = 4.5881897e-06, global = 1.6868415e-07, cumulative = -4.2097266e-06
ExecutionTime = 2.04 s  ClockTime = 3 s
Inflow      : -3.4875396e-11 [kg/s]
Outflow     : -3.4012033e-11 [kg/s]
EnergyInflow  : -1.0525394e-05 [W]
EnergyOutflow : -1.0262075e-05 [W]
EnergyBalance : 2.6331902e-07 [W]
rho max/avg/min : 1.176411 1.1750549 1.1663176
T   max/avg/min : 302.56213 300.33057 300
P   max/avg/min : 101324.94 101319.23 101313.52
Prg max/avg/min : 101325 101324.99 101324.9
U   max/avg/min : 2.0947648e-05 9.9023881e-07 -2.0225576e-05
Prg max-min : 0.09722668
 
sngrad(rho) :0.087939917 0.014185778 -0.00013396864
 
Iteration Number = 34

DILUPBiCG:  Solving for Ux, Initial residual = 0.31739114, Final residual = 1.1255028e-05, No Iterations 1
DILUPBiCG:  Solving for Uy, Initial residual = 1.6030067e-07, Final residual = 1.6030067e-07, No Iterations 0
DILUPBiCG:  Solving for Uz, Initial residual = 0.034627652, Final residual = 9.1050846e-07, No Iterations 1
DILUPBiCG:  Solving for h, Initial residual = 0.0066955763, Final residual = 5.2683968e-07, No Iterations 1
GAMG:  Solving for p_rgh, Initial residual = 0.018366644, Final residual = 8.479114e-06, No Iterations 8
time step continuity errors : sum local = 2.2440399e-06, global = -2.6388669e-08, cumulative = -4.2361153e-06
ExecutionTime = 2.1 s  ClockTime = 3 s
Inflow      : -3.8198226e-11 [kg/s]
Outflow     : -3.8333289e-11 [kg/s]
EnergyInflow  : -1.1528225e-05 [W]
EnergyOutflow : -1.1565935e-05 [W]
EnergyBalance : -3.7709829e-08 [W]
rho max/avg/min : 1.176411 1.1750111 1.1661392
T   max/avg/min : 302.60842 300.34184 300
P   max/avg/min : 101324.94 101319.23 101313.52
Prg max/avg/min : 101325 101324.99 101324.9
U   max/avg/min : 2.2229035e-05 1.0751534e-06 -2.1263422e-05
Prg max-min : 0.098967277
 
sngrad(rho) :0.095751312 0.014858438 -0.00013396645
 
Iteration Number = 35

DILUPBiCG:  Solving for Ux, Initial residual = 0.35827103, Final residual = 1.2627244e-05, No Iterations 1
DILUPBiCG:  Solving for Uy, Initial residual = 1.6888663e-07, Final residual = 1.6888663e-07, No Iterations 0
DILUPBiCG:  Solving for Uz, Initial residual = 0.032417854, Final residual = 8.3413014e-07, No Iterations 1
DILUPBiCG:  Solving for h, Initial residual = 0.0064971519, Final residual = 5.2914301e-07, No Iterations 1
GAMG:  Solving for p_rgh, Initial residual = 0.018390691, Final residual = 1.4678767e-05, No Iterations 3
time step continuity errors : sum local = 3.9054202e-06, global = -5.8524481e-08, cumulative = -4.2946397e-06
ExecutionTime = 2.15 s  ClockTime = 3 s
Inflow      : -4.2618177e-11 [kg/s]
Outflow     : -4.2917718e-11 [kg/s]
EnergyInflow  : -1.2862166e-05 [W]
EnergyOutflow : -1.2949197e-05 [W]
EnergyBalance : -8.7030953e-08 [W]
rho max/avg/min : 1.176411 1.174967 1.1659626
T   max/avg/min : 302.65425 300.35317 300
P   max/avg/min : 101324.94 101319.23 101313.52
Prg max/avg/min : 101325 101324.99 101324.9
U   max/avg/min : 2.3546426e-05 1.1793855e-06 -2.3463664e-05
Prg max-min : 0.10069197
 
sngrad(rho) :0.10386616 0.015569402 -0.00013396356
 
Iteration Number = 36

DILUPBiCG:  Solving for Ux, Initial residual = 0.28349044, Final residual = 1.0042912e-05, No Iterations 1
DILUPBiCG:  Solving for Uy, Initial residual = 1.951987e-07, Final residual = 1.951987e-07, No Iterations 0
DILUPBiCG:  Solving for Uz, Initial residual = 0.030085496, Final residual = 6.6091006e-07, No Iterations 1
DILUPBiCG:  Solving for h, Initial residual = 0.0063098441, Final residual = 5.3166137e-07, No Iterations 1
GAMG:  Solving for p_rgh, Initial residual = 0.01855574, Final residual = 1.6525417e-05, No Iterations 5
time step continuity errors : sum local = 4.419848e-06, global = -2.8352998e-07, cumulative = -4.5781697e-06
ExecutionTime = 2.2 s  ClockTime = 3 s
Inflow      : -4.6287675e-11 [kg/s]
Outflow     : -4.7738844e-11 [kg/s]
EnergyInflow  : -1.396962e-05 [W]
EnergyOutflow : -1.4403871e-05 [W]
EnergyBalance : -4.3425028e-07 [W]
rho max/avg/min : 1.176411 1.1749227 1.1657877
T   max/avg/min : 302.69965 300.36455 300
P   max/avg/min : 101324.94 101319.23 101313.52
Prg max/avg/min : 101325 101324.99 101324.9
U   max/avg/min : 2.489673e-05 1.2725969e-06 -2.5748966e-05
Prg max-min : 0.10239786
 
sngrad(rho) :0.11227641 0.016318871 -0.00013395981
 
Iteration Number = 37

DILUPBiCG:  Solving for Ux, Initial residual = 0.3193947, Final residual = 1.1187368e-05, No Iterations 1
DILUPBiCG:  Solving for Uy, Initial residual = 2.1495618e-07, Final residual = 2.1495618e-07, No Iterations 0
DILUPBiCG:  Solving for Uz, Initial residual = 0.031177348, Final residual = 8.0541363e-07, No Iterations 1
DILUPBiCG:  Solving for h, Initial residual = 0.006132929, Final residual = 5.3393622e-07, No Iterations 1
GAMG:  Solving for p_rgh, Initial residual = 0.01866168, Final residual = 1.679703e-05, No Iterations 11
time step continuity errors : sum local = 4.5161568e-06, global = -1.1942973e-07, cumulative = -4.6975995e-06
ExecutionTime = 2.27 s  ClockTime = 3 s
Inflow      : -5.24622e-11 [kg/s]
Outflow     : -5.3073468e-11 [kg/s]
EnergyInflow  : -1.5833092e-05 [W]
EnergyOutflow : -1.6013496e-05 [W]
EnergyBalance : -1.8040428e-07 [W]
rho max/avg/min : 1.176411 1.1748782 1.1656145
T   max/avg/min : 302.74463 300.37599 300
P   max/avg/min : 101324.94 101319.23 101313.52
Prg max/avg/min : 101325 101324.99 101324.9
U   max/avg/min : 2.6322118e-05 1.246654e-06 -2.8433062e-05
Prg max-min : 0.10408937
 
sngrad(rho) :0.12097395 0.017106971 -0.00013395498
 
Iteration Number = 38

DILUPBiCG:  Solving for Ux, Initial residual = 0.25241398, Final residual = 9.0879723e-06, No Iterations 1
DILUPBiCG:  Solving for Uy, Initial residual = 2.2994958e-07, Final residual = 2.2994958e-07, No Iterations 0
DILUPBiCG:  Solving for Uz, Initial residual = 0.033188888, Final residual = 1.0023758e-06, No Iterations 1
DILUPBiCG:  Solving for h, Initial residual = 0.0059653656, Final residual = 5.3596423e-07, No Iterations 1
GAMG:  Solving for p_rgh, Initial residual = 0.018710268, Final residual = 1.8613778e-05, No Iterations 3
time step continuity errors : sum local = 5.0300062e-06, global = 1.4577074e-07, cumulative = -4.5518287e-06
ExecutionTime = 2.33 s  ClockTime = 3 s
Inflow      : -5.9516732e-11 [kg/s]
Outflow     : -5.8770645e-11 [kg/s]
EnergyInflow  : -1.796215e-05 [W]
EnergyOutflow : -1.7732517e-05 [W]
EnergyBalance : 2.2963302e-07 [W]
rho max/avg/min : 1.176411 1.1748336 1.1654429
T   max/avg/min : 302.78921 300.38748 300
P   max/avg/min : 101324.94 101319.23 101313.52
Prg max/avg/min : 101325 101324.99 101324.9
U   max/avg/min : 2.7785882e-05 1.1477579e-06 -3.1322618e-05
Prg max-min : 0.10576352
 
sngrad(rho) :0.1299506 0.017933759 -0.00013394883
 
Iteration Number = 39

DILUPBiCG:  Solving for Ux, Initial residual = 0.28291789, Final residual = 1.0054601e-05, No Iterations 1
DILUPBiCG:  Solving for Uy, Initial residual = 2.3813031e-07, Final residual = 2.3813031e-07, No Iterations 0
DILUPBiCG:  Solving for Uz, Initial residual = 0.032412834, Final residual = 9.6401835e-07, No Iterations 1
DILUPBiCG:  Solving for h, Initial residual = 0.0058066699, Final residual = 5.3777611e-07, No Iterations 1
GAMG:  Solving for p_rgh, Initial residual = 0.018808458, Final residual = 1.3310146e-05, No Iterations 10
time step continuity errors : sum local = 3.6727655e-06, global = 3.2303889e-07, cumulative = -4.2287898e-06
ExecutionTime = 2.39 s  ClockTime = 3 s
Inflow      : -6.6624854e-11 [kg/s]
Outflow     : -6.4971469e-11 [kg/s]
EnergyInflow  : -2.0107381e-05 [W]
EnergyOutflow : -1.9603514e-05 [W]
EnergyBalance : 5.0386663e-07 [W]
rho max/avg/min : 1.176411 1.1747887 1.1652728
T   max/avg/min : 302.8334 300.39902 300
P   max/avg/min : 101324.94 101319.23 101313.52
Prg max/avg/min : 101325 101324.99 101324.9
U   max/avg/min : 2.9248916e-05 9.1117501e-07 -3.4480138e-05
Prg max-min : 0.1074243
 
sngrad(rho) :0.13919823 0.018799231 -0.00013394107
 
Iteration Number = 40

DILUPBiCG:  Solving for Ux, Initial residual = 0.22509476, Final residual = 8.1688833e-06, No Iterations 1
DILUPBiCG:  Solving for Uy, Initial residual = 2.5511842e-07, Final residual = 2.5511842e-07, No Iterations 0
DILUPBiCG:  Solving for Uz, Initial residual = 0.036626843, Final residual = 1.291905e-06, No Iterations 1
DILUPBiCG:  Solving for h, Initial residual = 0.005656004, Final residual = 5.3936813e-07, No Iterations 1
GAMG:  Solving for p_rgh, Initial residual = 0.018911299, Final residual = 1.8021274e-05, No Iterations 3
time step continuity errors : sum local = 5.0138265e-06, global = 1.0009787e-07, cumulative = -4.128692e-06
ExecutionTime = 2.44 s  ClockTime = 3 s
Inflow      : -7.2219811e-11 [kg/s]
Outflow     : -7.1707488e-11 [kg/s]
EnergyInflow  : -2.1795939e-05 [W]
EnergyOutflow : -2.163601e-05 [W]
EnergyBalance : 1.5992885e-07 [W]
rho max/avg/min : 1.176411 1.1747436 1.1651042
T   max/avg/min : 302.87722 300.41061 300
P   max/avg/min : 101324.94 101319.23 101313.52
Prg max/avg/min : 101325 101324.99 101324.89
U   max/avg/min : 3.0776256e-05 5.6335845e-07 -3.7823683e-05
Prg max-min : 0.10906924
 
sngrad(rho) :0.14870872 0.019703323 -0.00013393137
 
Iteration Number = 41

DILUPBiCG:  Solving for Ux, Initial residual = 0.25118924, Final residual = 9.1011696e-06, No Iterations 1
DILUPBiCG:  Solving for Uy, Initial residual = 2.7909795e-07, Final residual = 2.7909795e-07, No Iterations 0
DILUPBiCG:  Solving for Uz, Initial residual = 0.035017807, Final residual = 1.2004188e-06, No Iterations 1
DILUPBiCG:  Solving for h, Initial residual = 0.0055128368, Final residual = 5.4119997e-07, No Iterations 1
GAMG:  Solving for p_rgh, Initial residual = 0.019167916, Final residual = 1.6348192e-05, No Iterations 3
time step continuity errors : sum local = 4.6065944e-06, global = 3.6258997e-08, cumulative = -4.092433e-06
ExecutionTime = 2.49 s  ClockTime = 3 s
Inflow      : -7.9313273e-11 [kg/s]
Outflow     : -7.9127691e-11 [kg/s]
EnergyInflow  : -2.3936746e-05 [W]
EnergyOutflow : -2.387497e-05 [W]
EnergyBalance : 6.1775323e-08 [W]
rho max/avg/min : 1.176411 1.1746984 1.1649371
T   max/avg/min : 302.92069 300.42224 300
P   max/avg/min : 101324.94 101319.23 101313.52
Prg max/avg/min : 101325 101324.99 101324.89
U   max/avg/min : 3.236608e-05 2.422186e-07 -4.1320943e-05
Prg max-min : 0.11070152
 
sngrad(rho) :0.15847404 0.02064592 -0.00013391936
 
Iteration Number = 42

DILUPBiCG:  Solving for Ux, Initial residual = 0.20145438, Final residual = 7.4339274e-06, No Iterations 1
DILUPBiCG:  Solving for Uy, Initial residual = 2.9524148e-07, Final residual = 2.9524148e-07, No Iterations 0
DILUPBiCG:  Solving for Uz, Initial residual = 0.034330717, Final residual = 1.1674888e-06, No Iterations 1
DILUPBiCG:  Solving for h, Initial residual = 0.0053766378, Final residual = 5.4282749e-07, No Iterations 1
GAMG:  Solving for p_rgh, Initial residual = 0.019748586, Final residual = 1.7726322e-05, No Iterations 3
time step continuity errors : sum local = 5.0207354e-06, global = 9.6579973e-08, cumulative = -3.995853e-06
ExecutionTime = 2.55 s  ClockTime = 3 s
Inflow      : -8.6976919e-11 [kg/s]
Outflow     : -8.6482601e-11 [kg/s]
EnergyInflow  : -2.6249634e-05 [W]
EnergyOutflow : -2.6094193e-05 [W]
EnergyBalance : 1.5544088e-07 [W]
rho max/avg/min : 1.176411 1.174653 1.1647713
T   max/avg/min : 302.96381 300.43393 300
P   max/avg/min : 101324.94 101319.23 101313.52
Prg max/avg/min : 101325 101324.99 101324.89
U   max/avg/min : 3.3996022e-05 -5.8579055e-08 -4.4963354e-05
Prg max-min : 0.11231949
 
sngrad(rho) :0.16848626 0.02162686 -0.00013390459
 
Iteration Number = 43

DILUPBiCG:  Solving for Ux, Initial residual = 0.2225902, Final residual = 8.4593623e-06, No Iterations 1
DILUPBiCG:  Solving for Uy, Initial residual = 3.3288681e-07, Final residual = 3.3288681e-07, No Iterations 0
DILUPBiCG:  Solving for Uz, Initial residual = 0.033041612, Final residual = 1.096493e-06, No Iterations 1
DILUPBiCG:  Solving for h, Initial residual = 0.005246848, Final residual = 5.442239e-07, No Iterations 1
GAMG:  Solving for p_rgh, Initial residual = 0.020272006, Final residual = 1.4615706e-05, No Iterations 3
time step continuity errors : sum local = 4.240525e-06, global = 6.9773058e-08, cumulative = -3.9260799e-06
ExecutionTime = 2.61 s  ClockTime = 3 s
Inflow      : -9.5217325e-11 [kg/s]
Outflow     : -9.4860211e-11 [kg/s]
EnergyInflow  : -2.8736589e-05 [W]
EnergyOutflow : -2.8622047e-05 [W]
EnergyBalance : 1.1454138e-07 [W]
rho max/avg/min : 1.176411 1.1746074 1.1646068
T   max/avg/min : 303.0066 300.44566 300
P   max/avg/min : 101324.94 101319.23 101313.52
Prg max/avg/min : 101325 101324.99 101324.89
U   max/avg/min : 3.5678519e-05 -3.412212e-07 -4.874801e-05
Prg max-min : 0.11392521
 
sngrad(rho) :0.17873757 0.022645935 -0.00013388659
 
Iteration Number = 44

DILUPBiCG:  Solving for Ux, Initial residual = 0.18056086, Final residual = 6.8602747e-06, No Iterations 1
DILUPBiCG:  Solving for Uy, Initial residual = 3.6636183e-07, Final residual = 3.6636183e-07, No Iterations 0
DILUPBiCG:  Solving for Uz, Initial residual = 0.032303982, Final residual = 1.0693538e-06, No Iterations 1
DILUPBiCG:  Solving for h, Initial residual = 0.0051231618, Final residual = 5.4541461e-07, No Iterations 1
GAMG:  Solving for p_rgh, Initial residual = 0.020596286, Final residual = 1.4957972e-05, No Iterations 3
time step continuity errors : sum local = 4.401437e-06, global = 6.9375134e-08, cumulative = -3.8567048e-06
ExecutionTime = 2.67 s  ClockTime = 3 s
Inflow      : -1.0366317e-10 [kg/s]
Outflow     : -1.0330809e-10 [kg/s]
EnergyInflow  : -3.1285544e-05 [W]
EnergyOutflow : -3.1171077e-05 [W]
EnergyBalance : 1.144669e-07 [W]
rho max/avg/min : 1.176411 1.1745616 1.1644436
T   max/avg/min : 303.04907 300.45744 300
P   max/avg/min : 101324.94 101319.23 101313.52
Prg max/avg/min : 101325 101324.99 101324.89
U   max/avg/min : 3.7420853e-05 -6.1458608e-07 -5.284826e-05
Prg max-min : 0.11551811
 
sngrad(rho) :0.18922029 0.0237029 -0.0001338648
 
Iteration Number = 45

DILUPBiCG:  Solving for Ux, Initial residual = 0.19748977, Final residual = 7.649297e-06, No Iterations 1
DILUPBiCG:  Solving for Uy, Initial residual = 4.152633e-07, Final residual = 4.152633e-07, No Iterations 0
DILUPBiCG:  Solving for Uz, Initial residual = 0.03118332, Final residual = 1.013147e-06, No Iterations 1
DILUPBiCG:  Solving for h, Initial residual = 0.0050049505, Final residual = 5.4638509e-07, No Iterations 1
GAMG:  Solving for p_rgh, Initial residual = 0.020970282, Final residual = 1.2479727e-05, No Iterations 3
time step continuity errors : sum local = 3.7712848e-06, global = -1.2384219e-07, cumulative = -3.980547e-06
ExecutionTime = 2.72 s  ClockTime = 3 s
Inflow      : -1.1198371e-10 [kg/s]
Outflow     : -1.1261756e-10 [kg/s]
EnergyInflow  : -3.3796685e-05 [W]
EnergyOutflow : -3.3980114e-05 [W]
EnergyBalance : -1.8342901e-07 [W]
rho max/avg/min : 1.176411 1.1745157 1.1642816
T   max/avg/min : 303.09123 300.46927 300
P   max/avg/min : 101324.94 101319.23 101313.52
Prg max/avg/min : 101325 101324.99 101324.89
U   max/avg/min : 3.9199866e-05 -8.7613851e-07 -5.7145344e-05
Prg max-min : 0.11709919
 
sngrad(rho) :0.19992689 0.024797475 -0.00013383863
 
Iteration Number = 46

DILUPBiCG:  Solving for Ux, Initial residual = 0.16259784, Final residual = 6.3099068e-06, No Iterations 1
DILUPBiCG:  Solving for Uy, Initial residual = 4.3275312e-07, Final residual = 4.3275312e-07, No Iterations 0
DILUPBiCG:  Solving for Uz, Initial residual = 0.030372914, Final residual = 9.8523924e-07, No Iterations 1
DILUPBiCG:  Solving for h, Initial residual = 0.0048920834, Final residual = 5.4728688e-07, No Iterations 1
GAMG:  Solving for p_rgh, Initial residual = 0.021180098, Final residual = 1.5703771e-05, No Iterations 3
time step continuity errors : sum local = 4.8421273e-06, global = -1.8953119e-07, cumulative = -4.1700782e-06
ExecutionTime = 2.77 s  ClockTime = 3 s
Inflow      : -1.2142213e-10 [kg/s]
Outflow     : -1.223922e-10 [kg/s]
EnergyInflow  : -3.66452e-05 [W]
EnergyOutflow : -3.6929508e-05 [W]
EnergyBalance : -2.8430741e-07 [W]
rho max/avg/min : 1.176411 1.1744696 1.1641208
T   max/avg/min : 303.13309 300.48113 300
P   max/avg/min : 101324.94 101319.23 101313.52
Prg max/avg/min : 101325 101324.99 101324.89
U   max/avg/min : 4.1015623e-05 -1.1381814e-06 -6.1788548e-05
Prg max-min : 0.11866852
 
sngrad(rho) :0.21085001 0.025929346 -0.00013380741
 
Iteration Number = 47

DILUPBiCG:  Solving for Ux, Initial residual = 0.17820019, Final residual = 6.9246337e-06, No Iterations 1
DILUPBiCG:  Solving for Uy, Initial residual = 4.6852733e-07, Final residual = 4.6852733e-07, No Iterations 0
DILUPBiCG:  Solving for Uz, Initial residual = 0.029595383, Final residual = 9.5190428e-07, No Iterations 1
DILUPBiCG:  Solving for h, Initial residual = 0.0047840877, Final residual = 5.4826316e-07, No Iterations 1
GAMG:  Solving for p_rgh, Initial residual = 0.021648862, Final residual = 1.291887e-05, No Iterations 10
time step continuity errors : sum local = 4.0213055e-06, global = -1.3680251e-07, cumulative = -4.3068807e-06
ExecutionTime = 2.83 s  ClockTime = 3 s
Inflow      : -1.3211201e-10 [kg/s]
Outflow     : -1.328122e-10 [kg/s]
EnergyInflow  : -3.9871405e-05 [W]
EnergyOutflow : -4.0073647e-05 [W]
EnergyBalance : -2.0224189e-07 [W]
rho max/avg/min : 1.176411 1.1744233 1.1639612
T   max/avg/min : 303.17466 300.49304 300
P   max/avg/min : 101324.94 101319.23 101313.52
Prg max/avg/min : 101325.01 101324.99 101324.89
U   max/avg/min : 4.2906208e-05 -1.4651081e-06 -6.6694873e-05
Prg max-min : 0.1202267
 
sngrad(rho) :0.22198244 0.027098171 -0.00013377039
 
Iteration Number = 48

DILUPBiCG:  Solving for Ux, Initial residual = 0.14949954, Final residual = 5.831772e-06, No Iterations 1
DILUPBiCG:  Solving for Uy, Initial residual = 4.7465907e-07, Final residual = 4.7465907e-07, No Iterations 0
DILUPBiCG:  Solving for Uz, Initial residual = 0.030156714, Final residual = 1.0245869e-06, No Iterations 1
DILUPBiCG:  Solving for h, Initial residual = 0.0046806734, Final residual = 5.4904462e-07, No Iterations 1
GAMG:  Solving for p_rgh, Initial residual = 0.02190239, Final residual = 8.1964527e-06, No Iterations 12
time step continuity errors : sum local = 2.6017676e-06, global = 5.4369225e-08, cumulative = -4.2525115e-06
ExecutionTime = 2.89 s  ClockTime = 3 s
Inflow      : -1.4414579e-10 [kg/s]
Outflow     : -1.4386752e-10 [kg/s]
EnergyInflow  : -4.3503199e-05 [W]
EnergyOutflow : -4.34095e-05 [W]
EnergyBalance : 9.3698856e-08 [W]
rho max/avg/min : 1.176411 1.1743769 1.1638027
T   max/avg/min : 303.21596 300.50499 300
P   max/avg/min : 101324.94 101319.23 101313.52
Prg max/avg/min : 101325.01 101324.99 101324.88
U   max/avg/min : 4.4836465e-05 -1.9394521e-06 -7.1754454e-05
Prg max-min : 0.12177385
 
sngrad(rho) :0.23331716 0.028303585 -0.00013372676
 
Iteration Number = 49

DILUPBiCG:  Solving for Ux, Initial residual = 0.16250068, Final residual = 6.1305322e-06, No Iterations 1
DILUPBiCG:  Solving for Uy, Initial residual = 4.9999383e-07, Final residual = 4.9999383e-07, No Iterations 0
DILUPBiCG:  Solving for Uz, Initial residual = 0.030882368, Final residual = 1.0963038e-06, No Iterations 1
DILUPBiCG:  Solving for h, Initial residual = 0.0045816083, Final residual = 5.4965649e-07, No Iterations 1
GAMG:  Solving for p_rgh, Initial residual = 0.022140738, Final residual = 1.7318099e-05, No Iterations 7
time step continuity errors : sum local = 5.5846969e-06, global = -8.6439648e-08, cumulative = -4.3389511e-06
ExecutionTime = 2.96 s  ClockTime = 3 s
Inflow      : -1.5512262e-10 [kg/s]
Outflow     : -1.5556503e-10 [kg/s]
EnergyInflow  : -4.6816006e-05 [W]
EnergyOutflow : -4.6939142e-05 [W]
EnergyBalance : -1.2313669e-07 [W]
rho max/avg/min : 1.176411 1.1743304 1.1636453
T   max/avg/min : 303.25698 300.51698 300
P   max/avg/min : 101324.94 101319.23 101313.53
Prg max/avg/min : 101325.01 101324.99 101324.88
U   max/avg/min : 4.6801146e-05 -2.5297592e-06 -7.7088105e-05
Prg max-min : 0.12331056
 
sngrad(rho) :0.2448473 0.029545196 -0.00013367567
 
Iteration Number = 50

DILUPBiCG:  Solving for Ux, Initial residual = 0.13585862, Final residual = 4.984728e-06, No Iterations 1
DILUPBiCG:  Solving for Uy, Initial residual = 5.3732359e-07, Final residual = 5.3732359e-07, No Iterations 0
DILUPBiCG:  Solving for Uz, Initial residual = 0.030359161, Final residual = 1.0911317e-06, No Iterations 1
DILUPBiCG:  Solving for h, Initial residual = 0.0044865032, Final residual = 5.5008853e-07, No Iterations 1
GAMG:  Solving for p_rgh, Initial residual = 0.022240338, Final residual = 1.7271142e-05, No Iterations 4
time step continuity errors : sum local = 5.7005564e-06, global = -8.345005e-08, cumulative = -4.4224012e-06
ExecutionTime = 3.01 s  ClockTime = 3 s
Inflow      : -1.6756646e-10 [kg/s]
Outflow     : -1.6799357e-10 [kg/s]
EnergyInflow  : -5.0571557e-05 [W]
EnergyOutflow : -5.0689382e-05 [W]
EnergyBalance : -1.1782573e-07 [W]
rho max/avg/min : 1.176411 1.1742837 1.1634889
T   max/avg/min : 303.29774 300.52901 300
P   max/avg/min : 101324.94 101319.23 101313.53
Prg max/avg/min : 101325.01 101324.99 101324.88
U   max/avg/min : 4.884391e-05 -3.1571526e-06 -8.2721083e-05
Prg max-min : 0.12483695
 
sngrad(rho) :0.25656618 0.030822596 -0.00013361615
 
Iteration Number = 51

DILUPBiCG:  Solving for Ux, Initial residual = 0.14674836, Final residual = 5.3199958e-06, No Iterations 1
DILUPBiCG:  Solving for Uy, Initial residual = 5.5637278e-07, Final residual = 5.5637278e-07, No Iterations 0
DILUPBiCG:  Solving for Uz, Initial residual = 0.029250948, Final residual = 1.0442948e-06, No Iterations 1
DILUPBiCG:  Solving for h, Initial residual = 0.0043952789, Final residual = 5.5036594e-07, No Iterations 1
GAMG:  Solving for p_rgh, Initial residual = 0.022554144, Final residual = 1.9287096e-05, No Iterations 3
time step continuity errors : sum local = 6.4593848e-06, global = -1.1394083e-07, cumulative = -4.536342e-06
ExecutionTime = 3.07 s  ClockTime = 4 s
Inflow      : -1.8053909e-10 [kg/s]
Outflow     : -1.8112227e-10 [kg/s]
EnergyInflow  : -5.4486698e-05 [W]
EnergyOutflow : -5.4650903e-05 [W]
EnergyBalance : -1.6420487e-07 [W]
rho max/avg/min : 1.176411 1.1742368 1.1633335
T   max/avg/min : 303.33825 300.54107 300
P   max/avg/min : 101324.94 101319.23 101313.53
Prg max/avg/min : 101325.01 101324.99 101324.88
U   max/avg/min : 5.0924697e-05 -3.7905388e-06 -8.8584895e-05
Prg max-min : 0.12635342
 
sngrad(rho) :0.26846732 0.032135357 -0.00013354718
 
Iteration Number = 52

DILUPBiCG:  Solving for Ux, Initial residual = 0.12482693, Final residual = 4.3876534e-06, No Iterations 1
DILUPBiCG:  Solving for Uy, Initial residual = 5.9131504e-07, Final residual = 5.9131504e-07, No Iterations 0
DILUPBiCG:  Solving for Uz, Initial residual = 0.028154338, Final residual = 1.0014324e-06, No Iterations 1
DILUPBiCG:  Solving for h, Initial residual = 0.0043076612, Final residual = 5.5052869e-07, No Iterations 1
GAMG:  Solving for p_rgh, Initial residual = 0.022648079, Final residual = 1.9566406e-05, No Iterations 3
time step continuity errors : sum local = 6.6836745e-06, global = -1.5077505e-07, cumulative = -4.687117e-06
ExecutionTime = 3.12 s  ClockTime = 4 s
Inflow      : -1.9414226e-10 [kg/s]
Outflow     : -1.9491396e-10 [kg/s]
EnergyInflow  : -5.8592136e-05 [W]
EnergyOutflow : -5.8812492e-05 [W]
EnergyBalance : -2.2035691e-07 [W]
rho max/avg/min : 1.176411 1.1741899 1.1631791
T   max/avg/min : 303.37851 300.55317 300
P   max/avg/min : 101324.94 101319.23 101313.53
Prg max/avg/min : 101325.01 101324.99 101324.88
U   max/avg/min : 5.3030282e-05 -4.4296438e-06 -9.47664e-05
Prg max-min : 0.12786025
 
sngrad(rho) :0.28054438 0.033483035 -0.00013346767
 
Iteration Number = 53

DILUPBiCG:  Solving for Ux, Initial residual = 0.13228222, Final residual = 4.6380096e-06, No Iterations 1
DILUPBiCG:  Solving for Uy, Initial residual = 7.006631e-07, Final residual = 7.006631e-07, No Iterations 0
DILUPBiCG:  Solving for Uz, Initial residual = 0.027179039, Final residual = 9.6361066e-07, No Iterations 1
DILUPBiCG:  Solving for h, Initial residual = 0.0042233619, Final residual = 5.5079937e-07, No Iterations 1
GAMG:  Solving for p_rgh, Initial residual = 0.022615811, Final residual = 2.0539155e-05, No Iterations 5
time step continuity errors : sum local = 7.2065593e-06, global = -1.0032741e-07, cumulative = -4.7874445e-06
ExecutionTime = 3.17 s  ClockTime = 4 s
Inflow      : -2.0885786e-10 [kg/s]
Outflow     : -2.0937136e-10 [kg/s]
EnergyInflow  : -6.3033302e-05 [W]
EnergyOutflow : -6.3174961e-05 [W]
EnergyBalance : -1.4165969e-07 [W]
rho max/avg/min : 1.176411 1.1741428 1.1630257
T   max/avg/min : 303.41852 300.56531 300
P   max/avg/min : 101324.94 101319.23 101313.53
Prg max/avg/min : 101325.01 101324.99 101324.88
U   max/avg/min : 5.5219893e-05 -5.0987308e-06 -0.00010124184
Prg max-min : 0.12935769
 
sngrad(rho) :0.29279124 0.034865176 -0.00013337647
 
Iteration Number = 54

DILUPBiCG:  Solving for Ux, Initial residual = 0.11400629, Final residual = 3.9767527e-06, No Iterations 1
DILUPBiCG:  Solving for Uy, Initial residual = 7.2185787e-07, Final residual = 7.2185787e-07, No Iterations 0
DILUPBiCG:  Solving for Uz, Initial residual = 0.026590163, Final residual = 9.4930451e-07, No Iterations 1
DILUPBiCG:  Solving for h, Initial residual = 0.0041423123, Final residual = 5.5091901e-07, No Iterations 1
GAMG:  Solving for p_rgh, Initial residual = 0.022610699, Final residual = 9.7627263e-06, No Iterations 10
time step continuity errors : sum local = 3.4976635e-06, global = 1.7103693e-07, cumulative = -4.6164075e-06
ExecutionTime = 3.23 s  ClockTime = 4 s
Inflow      : -2.2558958e-10 [kg/s]
Outflow     : -2.2471417e-10 [kg/s]
EnergyInflow  : -6.8082935e-05 [W]
EnergyOutflow : -6.780463e-05 [W]
EnergyBalance : 2.7830488e-07 [W]
rho max/avg/min : 1.176411 1.1740955 1.1628733
T   max/avg/min : 303.45831 300.57749 300
P   max/avg/min : 101324.94 101319.23 101313.53
Prg max/avg/min : 101325.01 101324.99 101324.88
U   max/avg/min : 5.7445824e-05 -5.8855458e-06 -0.00010800992
Prg max-min : 0.13084601
 
sngrad(rho) :0.30520192 0.03628131 -0.00013327232
 
Iteration Number = 55

DILUPBiCG:  Solving for Ux, Initial residual = 0.11974772, Final residual = 4.3215891e-06, No Iterations 1
DILUPBiCG:  Solving for Uy, Initial residual = 7.6483987e-07, Final residual = 7.6483987e-07, No Iterations 0
DILUPBiCG:  Solving for Uz, Initial residual = 0.026897211, Final residual = 9.9150934e-07, No Iterations 1
DILUPBiCG:  Solving for h, Initial residual = 0.0040641999, Final residual = 5.508894e-07, No Iterations 1
GAMG:  Solving for p_rgh, Initial residual = 0.022726038, Final residual = 2.2076383e-05, No Iterations 5
time step continuity errors : sum local = 8.0106665e-06, global = -1.6809431e-07, cumulative = -4.7845018e-06
ExecutionTime = 3.3 s  ClockTime = 4 s
Inflow      : -2.3992257e-10 [kg/s]
Outflow     : -2.4078291e-10 [kg/s]
EnergyInflow  : -7.2408631e-05 [W]
EnergyOutflow : -7.2653356e-05 [W]
EnergyBalance : -2.4472534e-07 [W]
rho max/avg/min : 1.176411 1.1740482 1.1627217
T   max/avg/min : 303.49787 300.5897 300
P   max/avg/min : 101324.94 101319.23 101313.53
Prg max/avg/min : 101325.01 101324.99 101324.88
U   max/avg/min : 5.9700536e-05 -6.7598305e-06 -0.0001151555
Prg max-min : 0.13232545
 
sngrad(rho) :0.31777063 0.037730961 -0.00013315393
 
Iteration Number = 56

DILUPBiCG:  Solving for Ux, Initial residual = 0.10390119, Final residual = 3.6434499e-06, No Iterations 1
DILUPBiCG:  Solving for Uy, Initial residual = 8.3726262e-07, Final residual = 8.3726262e-07, No Iterations 0
DILUPBiCG:  Solving for Uz, Initial residual = 0.025753601, Final residual = 9.4503171e-07, No Iterations 1
DILUPBiCG:  Solving for h, Initial residual = 0.0039889689, Final residual = 5.5072708e-07, No Iterations 1
GAMG:  Solving for p_rgh, Initial residual = 0.022632505, Final residual = 2.0669151e-05, No Iterations 3
time step continuity errors : sum local = 7.6770499e-06, global = -3.4911419e-07, cumulative = -5.133616e-06
ExecutionTime = 3.35 s  ClockTime = 4 s
Inflow      : -2.5607328e-10 [kg/s]
Outflow     : -2.5786012e-10 [kg/s]
EnergyInflow  : -7.7282915e-05 [W]
EnergyOutflow : -7.780642e-05 [W]
EnergyBalance : -5.2350498e-07 [W]
rho max/avg/min : 1.176411 1.1740007 1.162571
T   max/avg/min : 303.53721 300.60194 300
P   max/avg/min : 101324.94 101319.24 101313.53
Prg max/avg/min : 101325.01 101324.99 101324.88
U   max/avg/min : 6.2016806e-05 -7.6429693e-06 -0.00012259276
Prg max-min : 0.13379628
 
sngrad(rho) :0.33049177 0.039213641 -0.00013301991
 
Iteration Number = 57

DILUPBiCG:  Solving for Ux, Initial residual = 0.10944803, Final residual = 3.9706251e-06, No Iterations 1
DILUPBiCG:  Solving for Uy, Initial residual = 8.1859337e-07, Final residual = 8.1859337e-07, No Iterations 0
DILUPBiCG:  Solving for Uz, Initial residual = 0.024928136, Final residual = 9.1309408e-07, No Iterations 1
DILUPBiCG:  Solving for h, Initial residual = 0.0039164869, Final residual = 5.5043698e-07, No Iterations 1
GAMG:  Solving for p_rgh, Initial residual = 0.022540247, Final residual = 2.2396999e-05, No Iterations 7
time step continuity errors : sum local = 8.5414467e-06, global = -9.111933e-08, cumulative = -5.2247354e-06
ExecutionTime = 3.41 s  ClockTime = 4 s
Inflow      : -2.7501659e-10 [kg/s]
Outflow     : -2.7548296e-10 [kg/s]
EnergyInflow  : -8.3000008e-05 [W]
EnergyOutflow : -8.3124128e-05 [W]
EnergyBalance : -1.2411993e-07 [W]
rho max/avg/min : 1.176411 1.1739531 1.1624212
T   max/avg/min : 303.57633 300.61421 300
P   max/avg/min : 101324.94 101319.24 101313.53
Prg max/avg/min : 101325.01 101324.99 101324.88
U   max/avg/min : 6.4394155e-05 -8.60051e-06 -0.00013033106
Prg max-min : 0.13525864
 
sngrad(rho) :0.34335987 0.040728859 -0.00013286882
 
Iteration Number = 58

DILUPBiCG:  Solving for Ux, Initial residual = 0.097386139, Final residual = 3.56177e-06, No Iterations 1
DILUPBiCG:  Solving for Uy, Initial residual = 8.7484004e-07, Final residual = 8.7484004e-07, No Iterations 0
DILUPBiCG:  Solving for Uz, Initial residual = 0.024706484, Final residual = 9.18308e-07, No Iterations 1
DILUPBiCG:  Solving for h, Initial residual = 0.0038465453, Final residual = 5.5002503e-07, No Iterations 1
GAMG:  Solving for p_rgh, Initial residual = 0.022354774, Final residual = 1.2472649e-05, No Iterations 9
time step continuity errors : sum local = 4.8704811e-06, global = -9.0972514e-08, cumulative = -5.3157079e-06
ExecutionTime = 3.47 s  ClockTime = 4 s
Inflow      : -2.937255e-10 [kg/s]
Outflow     : -2.9419112e-10 [kg/s]
EnergyInflow  : -8.8646357e-05 [W]
EnergyOutflow : -8.8769367e-05 [W]
EnergyBalance : -1.2300986e-07 [W]
rho max/avg/min : 1.176411 1.1739054 1.1622722
T   max/avg/min : 303.61525 300.62651 300
P   max/avg/min : 101324.94 101319.24 101313.53
Prg max/avg/min : 101325.01 101324.99 101324.87
U   max/avg/min : 6.6795262e-05 -9.6850119e-06 -0.00013846415
Prg max-min : 0.13671293
 
sngrad(rho) :0.35636965 0.042276116 -0.00013269915
 
Iteration Number = 59

DILUPBiCG:  Solving for Ux, Initial residual = 0.10142393, Final residual = 3.7869993e-06, No Iterations 1
DILUPBiCG:  Solving for Uy, Initial residual = 9.3223382e-07, Final residual = 9.3223382e-07, No Iterations 0
DILUPBiCG:  Solving for Uz, Initial residual = 0.024452263, Final residual = 9.2057314e-07, No Iterations 1
DILUPBiCG:  Solving for h, Initial residual = 0.0037790089, Final residual = 5.4958192e-07, No Iterations 1
GAMG:  Solving for p_rgh, Initial residual = 0.022317571, Final residual = 1.9450431e-05, No Iterations 3
time step continuity errors : sum local = 7.7527187e-06, global = -2.8202246e-07, cumulative = -5.5977303e-06
ExecutionTime = 3.52 s  ClockTime = 4 s
Inflow      : -3.1207634e-10 [kg/s]
Outflow     : -3.1351979e-10 [kg/s]
EnergyInflow  : -9.4184639e-05 [W]
EnergyOutflow : -9.4601852e-05 [W]
EnergyBalance : -4.1721245e-07 [W]
rho max/avg/min : 1.176411 1.1738575 1.162124
T   max/avg/min : 303.65396 300.63885 300
P   max/avg/min : 101324.94 101319.24 101313.53
Prg max/avg/min : 101325.01 101324.99 101324.87
U   max/avg/min : 6.9231527e-05 -1.083467e-05 -0.00014694283
Prg max-min : 0.13815909
 
sngrad(rho) :0.36951601 0.043854909 -0.00013250932
 
Iteration Number = 60

DILUPBiCG:  Solving for Ux, Initial residual = 0.092234977, Final residual = 3.378398e-06, No Iterations 1
DILUPBiCG:  Solving for Uy, Initial residual = 9.7966462e-07, Final residual = 9.7966462e-07, No Iterations 0
DILUPBiCG:  Solving for Uz, Initial residual = 0.023452334, Final residual = 8.7947046e-07, No Iterations 1
DILUPBiCG:  Solving for h, Initial residual = 0.0037138162, Final residual = 5.4920899e-07, No Iterations 1
GAMG:  Solving for p_rgh, Initial residual = 0.021858306, Final residual = 1.7776149e-05, No Iterations 3
time step continuity errors : sum local = 7.3322906e-06, global = -2.7979082e-07, cumulative = -5.8775211e-06
ExecutionTime = 3.56 s  ClockTime = 4 s
Inflow      : -3.3231416e-10 [kg/s]
Outflow     : -3.3374619e-10 [kg/s]
EnergyInflow  : -0.00010029241 [W]
EnergyOutflow : -0.00010070525 [W]
EnergyBalance : -4.1283531e-07 [W]
rho max/avg/min : 1.176411 1.1738096 1.1619767
T   max/avg/min : 303.69247 300.65121 300
P   max/avg/min : 101324.94 101319.24 101313.53
Prg max/avg/min : 101325.01 101324.99 101324.87
U   max/avg/min : 7.1729304e-05 -1.1989474e-05 -0.00015562798
Prg max-min : 0.13959762
 
sngrad(rho) :0.38279396 0.045464732 -0.0001322977
 
Iteration Number = 61

DILUPBiCG:  Solving for Ux, Initial residual = 0.096623492, Final residual = 3.6478336e-06, No Iterations 1
DILUPBiCG:  Solving for Uy, Initial residual = 1.0620709e-06, Final residual = 3.7995615e-11, No Iterations 1
DILUPBiCG:  Solving for Uz, Initial residual = 0.022603852, Final residual = 8.4518391e-07, No Iterations 1
DILUPBiCG:  Solving for h, Initial residual = 0.003650734, Final residual = 5.4870471e-07, No Iterations 1
GAMG:  Solving for p_rgh, Initial residual = 0.021445432, Final residual = 1.9699278e-05, No Iterations 9
time step continuity errors : sum local = 8.4424517e-06, global = -9.6305531e-08, cumulative = -5.9738267e-06
ExecutionTime = 3.63 s  ClockTime = 4 s
Inflow      : -3.5436187e-10 [kg/s]
Outflow     : -3.5485478e-10 [kg/s]
EnergyInflow  : -0.00010694641 [W]
EnergyOutflow : -0.00010707487 [W]
EnergyBalance : -1.284619e-07 [W]
rho max/avg/min : 1.176411 1.1737615 1.1618301
T   max/avg/min : 303.73079 300.66361 300
P   max/avg/min : 101324.94 101319.24 101313.53
Prg max/avg/min : 101325.01 101324.99 101324.87
U   max/avg/min : 7.4277915e-05 -1.3233795e-05 -0.00016467766
Prg max-min : 0.14102828
 
sngrad(rho) :0.3961987 0.047105078 -0.00013206259
 
Iteration Number = 62

DILUPBiCG:  Solving for Ux, Initial residual = 0.090617353, Final residual = 3.3694904e-06, No Iterations 1
DILUPBiCG:  Solving for Uy, Initial residual = 1.0854999e-06, Final residual = 3.8301712e-11, No Iterations 1
DILUPBiCG:  Solving for Uz, Initial residual = 0.022555859, Final residual = 8.5642737e-07, No Iterations 1
DILUPBiCG:  Solving for h, Initial residual = 0.0035897716, Final residual = 5.4810359e-07, No Iterations 1
GAMG:  Solving for p_rgh, Initial residual = 0.0210461, Final residual = 2.0557711e-05, No Iterations 3
time step continuity errors : sum local = 9.0645279e-06, global = -5.1387385e-08, cumulative = -6.0252141e-06
ExecutionTime = 3.69 s  ClockTime = 4 s
Inflow      : -3.7674122e-10 [kg/s]
Outflow     : -3.7700423e-10 [kg/s]
EnergyInflow  : -0.0001137005 [W]
EnergyOutflow : -0.00011375861 [W]
EnergyBalance : -5.8112676e-08 [W]
rho max/avg/min : 1.176411 1.1737134 1.1616843
T   max/avg/min : 303.76892 300.67603 300
P   max/avg/min : 101324.94 101319.24 101313.53
Prg max/avg/min : 101325.01 101324.99 101324.87
U   max/avg/min : 7.6860991e-05 -1.4554331e-05 -0.00017412466
Prg max-min : 0.14245199
 
sngrad(rho) :0.40972558 0.048775437 -0.00013180224
 
Iteration Number = 63

DILUPBiCG:  Solving for Ux, Initial residual = 0.093801391, Final residual = 3.622845e-06, No Iterations 1
DILUPBiCG:  Solving for Uy, Initial residual = 1.0939221e-06, Final residual = 3.8642472e-11, No Iterations 1
DILUPBiCG:  Solving for Uz, Initial residual = 0.021608121, Final residual = 8.1664436e-07, No Iterations 1
DILUPBiCG:  Solving for h, Initial residual = 0.0035308258, Final residual = 5.4740963e-07, No Iterations 1
GAMG:  Solving for p_rgh, Initial residual = 0.020523163, Final residual = 1.2722382e-05, No Iterations 7
time step continuity errors : sum local = 5.8505781e-06, global = -2.7465227e-08, cumulative = -6.0526793e-06
ExecutionTime = 3.76 s  ClockTime = 4 s
Inflow      : -3.9986153e-10 [kg/s]
Outflow     : -4.000021e-10 [kg/s]
EnergyInflow  : -0.00012067821 [W]
EnergyOutflow : -0.00012069839 [W]
EnergyBalance : -2.0179174e-08 [W]
rho max/avg/min : 1.176411 1.1736652 1.1615392
T   max/avg/min : 303.80686 300.68848 300
P   max/avg/min : 101324.94 101319.24 101313.53
Prg max/avg/min : 101325.01 101324.99 101324.87
U   max/avg/min : 7.9477698e-05 -1.5928966e-05 -0.00018390332
Prg max-min : 0.14386781
 
sngrad(rho) :0.42337008 0.050475298 -0.00013151486
 
Iteration Number = 64

DILUPBiCG:  Solving for Ux, Initial residual = 0.09011238, Final residual = 3.399824e-06, No Iterations 1
DILUPBiCG:  Solving for Uy, Initial residual = 1.1677011e-06, Final residual = 3.9680478e-11, No Iterations 1
DILUPBiCG:  Solving for Uz, Initial residual = 0.021329222, Final residual = 8.1334085e-07, No Iterations 1
DILUPBiCG:  Solving for h, Initial residual = 0.0034737736, Final residual = 5.4662232e-07, No Iterations 1
GAMG:  Solving for p_rgh, Initial residual = 0.019967617, Final residual = 1.4323657e-05, No Iterations 9
time step continuity errors : sum local = 6.8396962e-06, global = 7.1635687e-08, cumulative = -5.9810436e-06
ExecutionTime = 3.82 s  ClockTime = 4 s
Inflow      : -4.2432416e-10 [kg/s]
Outflow     : -4.2395751e-10 [kg/s]
EnergyInflow  : -0.00012806103 [W]
EnergyOutflow : -0.00012792711 [W]
EnergyBalance : 1.3391676e-07 [W]
rho max/avg/min : 1.176411 1.1736168 1.1613948
T   max/avg/min : 303.84463 300.70095 300
P   max/avg/min : 101324.94 101319.24 101313.53
Prg max/avg/min : 101325.01 101324.99 101324.87
U   max/avg/min : 8.2111566e-05 -1.745649e-05 -0.00019405888
Prg max-min : 0.14527737
 
sngrad(rho) :0.47378961 0.056795765 -0.0001311986
 
Iteration Number = 65

DILUPBiCG:  Solving for Ux, Initial residual = 0.093136005, Final residual = 3.6020868e-06, No Iterations 1
DILUPBiCG:  Solving for Uy, Initial residual = 1.3249589e-06, Final residual = 5.0346888e-11, No Iterations 1
DILUPBiCG:  Solving for Uz, Initial residual = 0.021263989, Final residual = 8.2091032e-07, No Iterations 1
DILUPBiCG:  Solving for h, Initial residual = 0.0034184796, Final residual = 5.4575515e-07, No Iterations 1
GAMG:  Solving for p_rgh, Initial residual = 0.019481823, Final residual = 1.12872e-05, No Iterations 3
[...]
EnergyOutflow : -0.092142773 [W]
EnergyBalance : -7.3772705e-08 [W]
rho max/avg/min : 1.1763249 1.1318429 1.0153958
T   max/avg/min : 347.57219 312.13387 300.00137
P   max/avg/min : 101324.95 101319.51 101314.06
Prg max/avg/min : 101325.54 101325.07 101324.61
U   max/avg/min : 0.00040394891 -0.032796075 -0.08157756
Prg max-min : 0.93361552
 
sngrad(rho) :10.176429 3.0162057 0.00093890034
 
Iteration Number = 3266

DILUPBiCG:  Solving for Ux, Initial residual = 0.00041860278, Final residual = 4.1766895e-07, No Iterations 1
DILUPBiCG:  Solving for Uy, Initial residual = 0.00038454795, Final residual = 2.9551353e-07, No Iterations 1
DILUPBiCG:  Solving for Uz, Initial residual = 8.7111839e-06, Final residual = 1.9427849e-09, No Iterations 1
DILUPBiCG:  Solving for h, Initial residual = 4.7127347e-06, Final residual = 5.109479e-08, No Iterations 1
GAMG:  Solving for p_rgh, Initial residual = 1.1222509e-05, Final residual = 4.5235291e-08, No Iterations 1
time step continuity errors : sum local = 7.9740875e-07, global = -5.0128107e-08, cumulative = 4.5206328e-05
ExecutionTime = 189.32 s  ClockTime = 190 s
Inflow      : -3.0531043e-07 [kg/s]
Outflow     : -3.0531069e-07 [kg/s]
EnergyInflow  : -0.092142689 [W]
EnergyOutflow : -0.092142765 [W]
EnergyBalance : -7.6755859e-08 [W]
rho max/avg/min : 1.1763249 1.131842 1.0153948
T   max/avg/min : 347.57251 312.13411 300.00137
P   max/avg/min : 101324.95 101319.51 101314.06
Prg max/avg/min : 101325.54 101325.07 101324.61
U   max/avg/min : 0.00040427441 -0.032795899 -0.081578035
Prg max-min : 0.93363009
 
sngrad(rho) :10.176433 3.0162071 0.0009389013
 
Iteration Number = 3267

DILUPBiCG:  Solving for Ux, Initial residual = 0.000406105, Final residual = 4.1125097e-07, No Iterations 1
DILUPBiCG:  Solving for Uy, Initial residual = 0.00039172254, Final residual = 2.7731472e-07, No Iterations 1
DILUPBiCG:  Solving for Uz, Initial residual = 8.700656e-06, Final residual = 1.9190591e-09, No Iterations 1
DILUPBiCG:  Solving for h, Initial residual = 4.7066025e-06, Final residual = 5.1033896e-08, No Iterations 1
GAMG:  Solving for p_rgh, Initial residual = 1.1090599e-05, Final residual = 4.468923e-08, No Iterations 1
time step continuity errors : sum local = 7.7754186e-07, global = -5.1216231e-08, cumulative = 4.5155112e-05
ExecutionTime = 189.37 s  ClockTime = 190 s
Inflow      : -3.0531039e-07 [kg/s]
Outflow     : -3.0531065e-07 [kg/s]
EnergyInflow  : -0.092142676 [W]
EnergyOutflow : -0.092142754 [W]
EnergyBalance : -7.8436651e-08 [W]
rho max/avg/min : 1.1763249 1.1318412 1.0153939
T   max/avg/min : 347.57283 312.13435 300.00137
P   max/avg/min : 101324.95 101319.51 101314.06
Prg max/avg/min : 101325.54 101325.07 101324.61
U   max/avg/min : 0.00040459916 -0.032795723 -0.081578506
Prg max-min : 0.93364155
 
sngrad(rho) :10.176437 3.0162086 0.00093890227
 
Iteration Number = 3268

DILUPBiCG:  Solving for Ux, Initial residual = 0.00040409021, Final residual = 4.0575105e-07, No Iterations 1
DILUPBiCG:  Solving for Uy, Initial residual = 0.00039542642, Final residual = 3.3873318e-07, No Iterations 1
DILUPBiCG:  Solving for Uz, Initial residual = 8.6900465e-06, Final residual = 1.918794e-09, No Iterations 1
DILUPBiCG:  Solving for h, Initial residual = 4.7004767e-06, Final residual = 5.097819e-08, No Iterations 1
GAMG:  Solving for p_rgh, Initial residual = 1.1058012e-05, Final residual = 4.4059227e-08, No Iterations 1
time step continuity errors : sum local = 7.7023608e-07, global = -5.293298e-08, cumulative = 4.5102179e-05
ExecutionTime = 189.42 s  ClockTime = 190 s
Inflow      : -3.0531035e-07 [kg/s]
Outflow     : -3.0531062e-07 [kg/s]
EnergyInflow  : -0.092142665 [W]
EnergyOutflow : -0.092142746 [W]
EnergyBalance : -8.1088471e-08 [W]
rho max/avg/min : 1.1763249 1.1318404 1.0153929
T   max/avg/min : 347.57316 312.1346 300.00137
P   max/avg/min : 101324.95 101319.51 101314.06
Prg max/avg/min : 101325.54 101325.07 101324.61
U   max/avg/min : 0.00040492352 -0.032795548 -0.081578981
Prg max-min : 0.93365603
 
sngrad(rho) :10.176441 3.0162101 0.00093890322
 
Iteration Number = 3269

DILUPBiCG:  Solving for Ux, Initial residual = 0.00039205376, Final residual = 3.9857939e-07, No Iterations 1
DILUPBiCG:  Solving for Uy, Initial residual = 0.00039567568, Final residual = 2.9814983e-07, No Iterations 1
DILUPBiCG:  Solving for Uz, Initial residual = 8.6795521e-06, Final residual = 1.9435843e-09, No Iterations 1
DILUPBiCG:  Solving for h, Initial residual = 4.6943611e-06, Final residual = 5.0917549e-08, No Iterations 1
GAMG:  Solving for p_rgh, Initial residual = 1.0910626e-05, Final residual = 4.3732613e-08, No Iterations 1
time step continuity errors : sum local = 7.6833657e-07, global = -5.2992142e-08, cumulative = 4.5049187e-05
ExecutionTime = 189.48 s  ClockTime = 190 s
Inflow      : -3.0531032e-07 [kg/s]
Outflow     : -3.0531059e-07 [kg/s]
EnergyInflow  : -0.092142656 [W]
EnergyOutflow : -0.092142737 [W]
EnergyBalance : -8.1179848e-08 [W]
rho max/avg/min : 1.1763248 1.1318395 1.015392
T   max/avg/min : 347.57348 312.13484 300.00137
P   max/avg/min : 101324.95 101319.51 101314.06
Prg max/avg/min : 101325.54 101325.07 101324.61
U   max/avg/min : 0.00040524708 -0.032795373 -0.08157946
Prg max-min : 0.93366775
 
sngrad(rho) :10.176445 3.0162116 0.00093890418
 
Iteration Number = 3270

DILUPBiCG:  Solving for Ux, Initial residual = 0.00039048183, Final residual = 3.9402652e-07, No Iterations 1
DILUPBiCG:  Solving for Uy, Initial residual = 0.0004069077, Final residual = 3.3214805e-07, No Iterations 1
DILUPBiCG:  Solving for Uz, Initial residual = 8.6689942e-06, Final residual = 1.9429776e-09, No Iterations 1
DILUPBiCG:  Solving for h, Initial residual = 4.6882527e-06, Final residual = 5.0858095e-08, No Iterations 1
GAMG:  Solving for p_rgh, Initial residual = 1.09056e-05, Final residual = 4.3505411e-08, No Iterations 1
time step continuity errors : sum local = 7.6150844e-07, global = -5.2129593e-08, cumulative = 4.4997057e-05
ExecutionTime = 189.53 s  ClockTime = 190 s
Inflow      : -3.053103e-07 [kg/s]
Outflow     : -3.0531057e-07 [kg/s]
EnergyInflow  : -0.09214265 [W]
EnergyOutflow : -0.092142729 [W]
EnergyBalance : -7.9847479e-08 [W]
rho max/avg/min : 1.1763248 1.1318387 1.0153911
T   max/avg/min : 347.5738 312.13508 300.00137
P   max/avg/min : 101324.95 101319.51 101314.06
Prg max/avg/min : 101325.54 101325.07 101324.61
U   max/avg/min : 0.00040557019 -0.032795198 -0.081579937
Prg max-min : 0.93368184
 
sngrad(rho) :10.176449 3.016213 0.00093890513
 
Iteration Number = 3271

DILUPBiCG:  Solving for Ux, Initial residual = 0.00037856689, Final residual = 3.8581543e-07, No Iterations 1
DILUPBiCG:  Solving for Uy, Initial residual = 0.00039613289, Final residual = 3.2166646e-07, No Iterations 1
DILUPBiCG:  Solving for Uz, Initial residual = 8.6586008e-06, Final residual = 1.9328865e-09, No Iterations 1
DILUPBiCG:  Solving for h, Initial residual = 4.6821534e-06, Final residual = 5.0795117e-08, No Iterations 1
GAMG:  Solving for p_rgh, Initial residual = 1.0739299e-05, Final residual = 4.2954428e-08, No Iterations 1
time step continuity errors : sum local = 7.5207072e-07, global = -5.0343338e-08, cumulative = 4.4946714e-05
ExecutionTime = 189.59 s  ClockTime = 190 s
Inflow      : -3.0531028e-07 [kg/s]
Outflow     : -3.0531053e-07 [kg/s]
EnergyInflow  : -0.092142642 [W]
EnergyOutflow : -0.092142719 [W]
EnergyBalance : -7.7088278e-08 [W]
rho max/avg/min : 1.1763248 1.1318379 1.0153901
T   max/avg/min : 347.57412 312.13533 300.00137
P   max/avg/min : 101324.95 101319.51 101314.06
Prg max/avg/min : 101325.54 101325.07 101324.61
U   max/avg/min : 0.0004058926 -0.032795023 -0.081580413
Prg max-min : 0.93369376
 
sngrad(rho) :10.176453 3.0162145 0.00093890608
 
Iteration Number = 3272

DILUPBiCG:  Solving for Ux, Initial residual = 0.00037713231, Final residual = 3.8195827e-07, No Iterations 1
DILUPBiCG:  Solving for Uy, Initial residual = 0.00040463545, Final residual = 3.37292e-07, No Iterations 1
DILUPBiCG:  Solving for Uz, Initial residual = 8.6482157e-06, Final residual = 1.9262813e-09, No Iterations 1
DILUPBiCG:  Solving for h, Initial residual = 4.67606e-06, Final residual = 5.0734764e-08, No Iterations 1
GAMG:  Solving for p_rgh, Initial residual = 1.0762477e-05, Final residual = 4.2766614e-08, No Iterations 1
time step continuity errors : sum local = 7.4738308e-07, global = -5.165568e-08, cumulative = 4.4895058e-05
ExecutionTime = 189.65 s  ClockTime = 190 s
Inflow      : -3.0531025e-07 [kg/s]
Outflow     : -3.0531052e-07 [kg/s]
EnergyInflow  : -0.092142635 [W]
EnergyOutflow : -0.092142714 [W]
EnergyBalance : -7.911542e-08 [W]
rho max/avg/min : 1.1763248 1.131837 1.0153892
T   max/avg/min : 347.57444 312.13557 300.00137
P   max/avg/min : 101324.95 101319.51 101314.06
Prg max/avg/min : 101325.54 101325.07 101324.61
U   max/avg/min : 0.00040621461 -0.032794849 -0.08158089
Prg max-min : 0.93370819
 
sngrad(rho) :10.176456 3.0162159 0.00093890702
 
Iteration Number = 3273

DILUPBiCG:  Solving for Ux, Initial residual = 0.00036531344, Final residual = 3.7329644e-07, No Iterations 1
DILUPBiCG:  Solving for Uy, Initial residual = 0.0004123201, Final residual = 3.0738976e-07, No Iterations 1
DILUPBiCG:  Solving for Uz, Initial residual = 8.6379274e-06, Final residual = 1.9524538e-09, No Iterations 1
DILUPBiCG:  Solving for h, Initial residual = 4.6699768e-06, Final residual = 5.0675715e-08, No Iterations 1
GAMG:  Solving for p_rgh, Initial residual = 1.0575736e-05, Final residual = 4.2205549e-08, No Iterations 1
time step continuity errors : sum local = 7.442506e-07, global = -4.7962892e-08, cumulative = 4.4847095e-05
ExecutionTime = 189.72 s  ClockTime = 190 s
Inflow      : -3.0531024e-07 [kg/s]
Outflow     : -3.0531048e-07 [kg/s]
EnergyInflow  : -0.09214263 [W]
EnergyOutflow : -0.092142704 [W]
EnergyBalance : -7.3411237e-08 [W]
rho max/avg/min : 1.1763248 1.1318362 1.0153882
T   max/avg/min : 347.57476 312.13581 300.00137
P   max/avg/min : 101324.95 101319.51 101314.06
Prg max/avg/min : 101325.54 101325.07 101324.61
U   max/avg/min : 0.00040653586 -0.032794675 -0.081581368
Prg max-min : 0.93371968
 
sngrad(rho) :10.17646 3.0162174 0.00093890796
 
Iteration Number = 3274

DILUPBiCG:  Solving for Ux, Initial residual = 0.00036421383, Final residual = 3.7045102e-07, No Iterations 1
DILUPBiCG:  Solving for Uy, Initial residual = 0.00039253262, Final residual = 3.0891125e-07, No Iterations 1
DILUPBiCG:  Solving for Uz, Initial residual = 8.6275181e-06, Final residual = 1.9443508e-09, No Iterations 1
DILUPBiCG:  Solving for h, Initial residual = 4.6639005e-06, Final residual = 5.0613055e-08, No Iterations 1
GAMG:  Solving for p_rgh, Initial residual = 1.0631775e-05, Final residual = 4.1885105e-08, No Iterations 1
time step continuity errors : sum local = 7.4193637e-07, global = -4.7124337e-08, cumulative = 4.4799971e-05
ExecutionTime = 189.78 s  ClockTime = 190 s
Inflow      : -3.0531022e-07 [kg/s]
Outflow     : -3.0531046e-07 [kg/s]
EnergyInflow  : -0.092142625 [W]
EnergyOutflow : -0.092142697 [W]
EnergyBalance : -7.2115933e-08 [W]
rho max/avg/min : 1.1763248 1.1318354 1.0153873
T   max/avg/min : 347.57508 312.13605 300.00137
P   max/avg/min : 101324.95 101319.51 101314.06
Prg max/avg/min : 101325.54 101325.07 101324.61
U   max/avg/min : 0.00040685666 -0.032794502 -0.081581844
Prg max-min : 0.93373376
 
sngrad(rho) :10.176464 3.0162189 0.00093890889
 
Iteration Number = 3275

DILUPBiCG:  Solving for Ux, Initial residual = 0.00035262966, Final residual = 3.613014e-07, No Iterations 1
DILUPBiCG:  Solving for Uy, Initial residual = 0.00039142456, Final residual = 3.0801368e-07, No Iterations 1
DILUPBiCG:  Solving for Uz, Initial residual = 8.6170544e-06, Final residual = 1.9282592e-09, No Iterations 1
DILUPBiCG:  Solving for h, Initial residual = 4.6578345e-06, Final residual = 5.0550705e-08, No Iterations 1
GAMG:  Solving for p_rgh, Initial residual = 1.041834e-05, Final residual = 4.1566948e-08, No Iterations 1
time step continuity errors : sum local = 7.3326152e-07, global = -4.6099206e-08, cumulative = 4.4753872e-05
ExecutionTime = 189.84 s  ClockTime = 190 s
Inflow      : -3.0531019e-07 [kg/s]
Outflow     : -3.0531043e-07 [kg/s]
EnergyInflow  : -0.092142617 [W]
EnergyOutflow : -0.092142687 [W]
EnergyBalance : -7.0532422e-08 [W]
rho max/avg/min : 1.1763248 1.1318345 1.0153864
T   max/avg/min : 347.5754 312.13629 300.00137
P   max/avg/min : 101324.95 101319.51 101314.06
Prg max/avg/min : 101325.54 101325.07 101324.61
U   max/avg/min : 0.00040717693 -0.032794328 -0.081582317
Prg max-min : 0.9337457
 
sngrad(rho) :10.176468 3.0162203 0.00093890983
 
Iteration Number = 3276

DILUPBiCG:  Solving for Ux, Initial residual = 0.00035167134, Final residual = 3.5939902e-07, No Iterations 1
DILUPBiCG:  Solving for Uy, Initial residual = 0.0003885463, Final residual = 2.9426347e-07, No Iterations 1
DILUPBiCG:  Solving for Uz, Initial residual = 8.6065225e-06, Final residual = 1.921104e-09, No Iterations 1
DILUPBiCG:  Solving for h, Initial residual = 4.6517733e-06, Final residual = 5.0491378e-08, No Iterations 1
GAMG:  Solving for p_rgh, Initial residual = 1.0510515e-05, Final residual = 4.1977826e-08, No Iterations 1
time step continuity errors : sum local = 7.4169599e-07, global = -4.8644579e-08, cumulative = 4.4705227e-05
ExecutionTime = 189.91 s  ClockTime = 190 s
Inflow      : -3.0531016e-07 [kg/s]
Outflow     : -3.0531041e-07 [kg/s]
EnergyInflow  : -0.092142608 [W]
EnergyOutflow : -0.092142683 [W]
EnergyBalance : -7.4464202e-08 [W]
rho max/avg/min : 1.1763248 1.1318337 1.0153855
T   max/avg/min : 347.57571 312.13653 300.00137
P   max/avg/min : 101324.95 101319.51 101314.06
Prg max/avg/min : 101325.54 101325.07 101324.61
U   max/avg/min : 0.00040749673 -0.032794155 -0.081582788
Prg max-min : 0.93375949
 
sngrad(rho) :10.176472 3.0162217 0.00093891075
 
Iteration Number = 3277

DILUPBiCG:  Solving for Ux, Initial residual = 0.00034016585, Final residual = 3.4978005e-07, No Iterations 1
DILUPBiCG:  Solving for Uy, Initial residual = 0.00038432329, Final residual = 3.0819705e-07, No Iterations 1
DILUPBiCG:  Solving for Uz, Initial residual = 8.5961287e-06, Final residual = 1.9113895e-09, No Iterations 1
DILUPBiCG:  Solving for h, Initial residual = 4.6457237e-06, Final residual = 5.0432237e-08, No Iterations 1
GAMG:  Solving for p_rgh, Initial residual = 1.0266262e-05, Final residual = 4.142644e-08, No Iterations 1
time step continuity errors : sum local = 7.3028437e-07, global = -4.7538427e-08, cumulative = 4.4657689e-05
ExecutionTime = 189.97 s  ClockTime = 191 s
Inflow      : -3.0531014e-07 [kg/s]
Outflow     : -3.0531038e-07 [kg/s]
EnergyInflow  : -0.092142601 [W]
EnergyOutflow : -0.092142674 [W]
EnergyBalance : -7.2755541e-08 [W]
rho max/avg/min : 1.1763248 1.1318329 1.0153845
T   max/avg/min : 347.57603 312.13677 300.00137
P   max/avg/min : 101324.95 101319.51 101314.06
Prg max/avg/min : 101325.54 101325.07 101324.61
U   max/avg/min : 0.00040781588 -0.032793982 -0.081583261
Prg max-min : 0.9337714
 
sngrad(rho) :10.176476 3.0162232 0.00093891168
 
Iteration Number = 3278

DILUPBiCG:  Solving for Ux, Initial residual = 0.00033941773, Final residual = 3.4848615e-07, No Iterations 1
DILUPBiCG:  Solving for Uy, Initial residual = 0.00038088516, Final residual = 2.8786289e-07, No Iterations 1
DILUPBiCG:  Solving for Uz, Initial residual = 8.5857747e-06, Final residual = 1.9339991e-09, No Iterations 1
DILUPBiCG:  Solving for h, Initial residual = 4.6396782e-06, Final residual = 5.0373452e-08, No Iterations 1
GAMG:  Solving for p_rgh, Initial residual = 1.0395108e-05, Final residual = 4.1443641e-08, No Iterations 1
time step continuity errors : sum local = 7.2878254e-07, global = -5.0100609e-08, cumulative = 4.4607588e-05
ExecutionTime = 190.03 s  ClockTime = 191 s
Inflow      : -3.0531011e-07 [kg/s]
Outflow     : -3.0531037e-07 [kg/s]
EnergyInflow  : -0.092142593 [W]
EnergyOutflow : -0.092142669 [W]
EnergyBalance : -7.6713284e-08 [W]
rho max/avg/min : 1.1763248 1.131832 1.0153836
T   max/avg/min : 347.57635 312.13701 300.00137
P   max/avg/min : 101324.95 101319.51 101314.06
Prg max/avg/min : 101325.54 101325.07 101324.61
U   max/avg/min : 0.00040813455 -0.03279381 -0.081583734
Prg max-min : 0.93378533
 
sngrad(rho) :10.17648 3.0162246 0.0009389126
 
Iteration Number = 3279

DILUPBiCG:  Solving for Ux, Initial residual = 0.00032812789, Final residual = 3.3838834e-07, No Iterations 1
DILUPBiCG:  Solving for Uy, Initial residual = 0.00038312995, Final residual = 2.8255043e-07, No Iterations 1
DILUPBiCG:  Solving for Uz, Initial residual = 8.5753898e-06, Final residual = 1.9190413e-09, No Iterations 1
DILUPBiCG:  Solving for h, Initial residual = 4.6336452e-06, Final residual = 5.0312131e-08, No Iterations 1
GAMG:  Solving for p_rgh, Initial residual = 1.0117156e-05, Final residual = 4.1070521e-08, No Iterations 1
time step continuity errors : sum local = 7.238288e-07, global = -4.7933032e-08, cumulative = 4.4559655e-05
ExecutionTime = 190.08 s  ClockTime = 191 s
Inflow      : -3.0531009e-07 [kg/s]
Outflow     : -3.0531033e-07 [kg/s]
EnergyInflow  : -0.092142585 [W]
EnergyOutflow : -0.092142659 [W]
EnergyBalance : -7.3365062e-08 [W]
rho max/avg/min : 1.1763248 1.1318312 1.0153827
T   max/avg/min : 347.57667 312.13725 300.00137
P   max/avg/min : 101324.95 101319.51 101314.06
Prg max/avg/min : 101325.54 101325.07 101324.61
U   max/avg/min : 0.00040845264 -0.032793637 -0.081584203
Prg max-min : 0.9337971
 
sngrad(rho) :10.176484 3.016226 0.00093891351
 
Iteration Number = 3280

DILUPBiCG:  Solving for Ux, Initial residual = 0.00032765685, Final residual = 3.3779998e-07, No Iterations 1
DILUPBiCG:  Solving for Uy, Initial residual = 0.00038168663, Final residual = 3.0798305e-07, No Iterations 1
DILUPBiCG:  Solving for Uz, Initial residual = 8.5650485e-06, Final residual = 1.902059e-09, No Iterations 1
DILUPBiCG:  Solving for h, Initial residual = 4.627616e-06, Final residual = 5.0254322e-08, No Iterations 1
GAMG:  Solving for p_rgh, Initial residual = 1.0282032e-05, Final residual = 4.0377821e-08, No Iterations 1
time step continuity errors : sum local = 7.1191905e-07, global = -5.0338981e-08, cumulative = 4.4509316e-05
ExecutionTime = 190.13 s  ClockTime = 191 s
Inflow      : -3.0531006e-07 [kg/s]
Outflow     : -3.0531032e-07 [kg/s]
EnergyInflow  : -0.092142577 [W]
EnergyOutflow : -0.092142654 [W]
EnergyBalance : -7.7081476e-08 [W]
rho max/avg/min : 1.1763248 1.1318304 1.0153817
T   max/avg/min : 347.57698 312.13749 300.00137
P   max/avg/min : 101324.95 101319.51 101314.06
Prg max/avg/min : 101325.54 101325.07 101324.61
U   max/avg/min : 0.00040877019 -0.032793465 -0.081584672
Prg max-min : 0.93381098
 
sngrad(rho) :10.176488 3.0162275 0.00093891443
 
Iteration Number = 3281

DILUPBiCG:  Solving for Ux, Initial residual = 0.00031660021, Final residual = 3.2720534e-07, No Iterations 1
DILUPBiCG:  Solving for Uy, Initial residual = 0.0004050911, Final residual = 3.3740174e-07, No Iterations 1
DILUPBiCG:  Solving for Uz, Initial residual = 8.5546678e-06, Final residual = 1.9226728e-09, No Iterations 1
DILUPBiCG:  Solving for h, Initial residual = 4.6215968e-06, Final residual = 5.0195369e-08, No Iterations 1
GAMG:  Solving for p_rgh, Initial residual = 9.9709564e-06, Final residual = 4.0340225e-08, No Iterations 1
time step continuity errors : sum local = 7.0475151e-07, global = -4.9970457e-08, cumulative = 4.4459346e-05
ExecutionTime = 190.18 s  ClockTime = 191 s
Inflow      : -3.0531003e-07 [kg/s]
Outflow     : -3.0531029e-07 [kg/s]
EnergyInflow  : -0.092142569 [W]
EnergyOutflow : -0.092142645 [W]
EnergyBalance : -7.6512213e-08 [W]
rho max/avg/min : 1.1763248 1.1318296 1.0153808
T   max/avg/min : 347.5773 312.13773 300.00137
P   max/avg/min : 101324.95 101319.51 101314.06
Prg max/avg/min : 101325.54 101325.07 101324.61
U   max/avg/min : 0.00040908724 -0.032793294 -0.081585143
Prg max-min : 0.93382261
 
sngrad(rho) :10.176492 3.0162289 0.00093891533
 

SIMPLE solution converged in 3281 iterations

End

