/*---------------------------------------------------------------------------*\
| =========                 |                                                 |
| \\      /  F ield         | OpenFOAM: The Open Source CFD Toolbox           |
|  \\    /   O peration     | Version:  4.0                                   |
|   \\  /    A nd           | Web:      www.OpenFOAM.org                      |
|    \\/     M anipulation  |                                                 |
\*---------------------------------------------------------------------------*/
Build  : 4.0-665f1db4c1f1
Exec   : pupoBuoyantSimpleFoam
Date   : Sep 15 2016
Time   : 15:59:52
Host   : "FAB2000"
PID    : 5276
Case   : /home/pedro/Documents/ThesisProject/OpenFoam/validation1rod/bug
nProcs : 1
sigFpe : Enabling floating point exception trapping (FOAM_SIGFPE).
fileModificationChecking : Monitoring run-time modified files using timeStampMaster
allowSystemOperations : Allowing user-supplied system call operations

// * * * * * * * * * * * * * * * * * * * * * * * * * * * * * * * * * * * * * //
Create time

Create mesh for time = 0

--> FOAM Warning : 
    From function virtual void Foam::wedgePolyPatch::calcGeometry(Foam::PstreamBuffers&)
    in file meshes/polyMesh/polyPatches/constraint/wedge/wedgePolyPatch.C at line 69
    Wedge patch 'LeftWedge' is not planar.
At local face at (0.011257869 -0.00049152919 0.00075) the normal (-0.04361943 -0.99904822 -5.2235259e-21) differs from the average normal (-0.043619388 -0.99904822 2.3351852e-21) by 1.7584971e-15
Either correct the patch or split it into planar parts
--> FOAM Warning : 
    From function virtual void Foam::wedgePolyPatch::calcGeometry(Foam::PstreamBuffers&)
    in file meshes/polyMesh/polyPatches/constraint/wedge/wedgePolyPatch.C at line 69
    Wedge patch 'LeftWedge' is not planar.
At local face at (0.011257869 -0.00049152919 0.00225) the normal (-0.04361943 -0.99904822 -5.2235259e-21) differs from the average normal (-0.043619388 -0.99904822 2.3351852e-21) by 1.7584971e-15
Either correct the patch or split it into planar parts
--> FOAM Warning : 
    From function virtual void Foam::wedgePolyPatch::calcGeometry(Foam::PstreamBuffers&)
    in file meshes/polyMesh/polyPatches/constraint/wedge/wedgePolyPatch.C at line 69
    Wedge patch 'LeftWedge' is not planar.
At local face at (0.011257869 -0.00049152919 0.00375) the normal (-0.04361943 -0.99904822 -5.2235259e-21) differs from the average normal (-0.043619388 -0.99904822 2.3351852e-21) by 1.7584971e-15
Either correct the patch or split it into planar parts
--> FOAM Warning : 
    From function virtual void Foam::wedgePolyPatch::calcGeometry(Foam::PstreamBuffers&)
    in file meshes/polyMesh/polyPatches/constraint/wedge/wedgePolyPatch.C at line 69
    Wedge patch 'LeftWedge' is not planar.
At local face at (0.011257869 -0.00049152919 0.00525) the normal (-0.04361943 -0.99904822 -5.2235259e-21) differs from the average normal (-0.043619388 -0.99904822 2.3351852e-21) by 1.7584971e-15
Either correct the patch or split it into planar parts
--> FOAM Warning : 
    From function virtual void Foam::wedgePolyPatch::calcGeometry(Foam::PstreamBuffers&)
    in file meshes/polyMesh/polyPatches/constraint/wedge/wedgePolyPatch.C at line 69
    Wedge patch 'LeftWedge' is not planar.
At local face at (0.011257869 -0.00049152919 0.00675) the normal (-0.04361943 -0.99904822 -5.2235259e-21) differs from the average normal (-0.043619388 -0.99904822 2.3351852e-21) by 1.7584971e-15
Either correct the patch or split it into planar parts
--> FOAM Warning : 
    From function virtual void Foam::wedgePolyPatch::calcGeometry(Foam::PstreamBuffers&)
    in file meshes/polyMesh/polyPatches/constraint/wedge/wedgePolyPatch.C at line 69
    Wedge patch 'LeftWedge' is not planar.
At local face at (0.011257869 -0.00049152919 0.00825) the normal (-0.04361943 -0.99904822 -5.2235259e-21) differs from the average normal (-0.043619388 -0.99904822 2.3351852e-21) by 1.7584971e-15
Either correct the patch or split it into planar parts
--> FOAM Warning : 
    From function virtual void Foam::wedgePolyPatch::calcGeometry(Foam::PstreamBuffers&)
    in file meshes/polyMesh/polyPatches/constraint/wedge/wedgePolyPatch.C at line 69
    Wedge patch 'LeftWedge' is not planar.
At local face at (0.011257869 -0.00049152919 0.00975) the normal (-0.04361943 -0.99904822 -5.2235259e-21) differs from the average normal (-0.043619388 -0.99904822 2.3351852e-21) by 1.7584971e-15
Either correct the patch or split it into planar parts
--> FOAM Warning : 
    From function virtual void Foam::wedgePolyPatch::calcGeometry(Foam::PstreamBuffers&)
    in file meshes/polyMesh/polyPatches/constraint/wedge/wedgePolyPatch.C at line 69
    Wedge patch 'LeftWedge' is not planar.
At local face at (0.011257869 -0.00049152919 0.01125) the normal (-0.04361943 -0.99904822 -5.2235259e-21) differs from the average normal (-0.043619388 -0.99904822 2.3351852e-21) by 1.7584971e-15
Either correct the patch or split it into planar parts
--> FOAM Warning : 
    From function virtual void Foam::wedgePolyPatch::calcGeometry(Foam::PstreamBuffers&)
    in file meshes/polyMesh/polyPatches/constraint/wedge/wedgePolyPatch.C at line 69
    Wedge patch 'LeftWedge' is not planar.
At local face at (0.011257869 -0.00049152919 0.01275) the normal (-0.04361943 -0.99904822 -5.2235259e-21) differs from the average normal (-0.043619388 -0.99904822 2.3351852e-21) by 1.7584971e-15
Either correct the patch or split it into planar parts
--> FOAM Warning : 
    From function virtual void Foam::wedgePolyPatch::calcGeometry(Foam::PstreamBuffers&)
    in file meshes/polyMesh/polyPatches/constraint/wedge/wedgePolyPatch.C at line 69
    Wedge patch 'LeftWedge' is not planar.
At local face at (0.011257869 -0.00049152919 0.01425) the normal (-0.04361943 -0.99904822 -5.2235259e-21) differs from the average normal (-0.043619388 -0.99904822 2.3351852e-21) by 1.7584971e-15
Either correct the patch or split it into planar parts
--> FOAM Warning : 
    From function virtual void Foam::wedgePolyPatch::calcGeometry(Foam::PstreamBuffers&)
    in file meshes/polyMesh/polyPatches/constraint/wedge/wedgePolyPatch.C at line 69
    Wedge patch 'LeftWedge' is not planar.
At local face at (0.011257869 -0.00049152919 0.01575) the normal (-0.04361943 -0.99904822 -5.2235259e-21) differs from the average normal (-0.043619388 -0.99904822 2.3351852e-21) by 1.7584971e-15
Either correct the patch or split it into planar parts
--> FOAM Warning : 
    From function virtual void Foam::wedgePolyPatch::calcGeometry(Foam::PstreamBuffers&)
    in file meshes/polyMesh/polyPatches/constraint/wedge/wedgePolyPatch.C at line 69
    Wedge patch 'LeftWedge' is not planar.
At local face at (0.011257869 -0.00049152919 0.01725) the normal (-0.04361943 -0.99904822 -5.2235259e-21) differs from the average normal (-0.043619388 -0.99904822 2.3351852e-21) by 1.7584971e-15
Either correct the patch or split it into planar parts
--> FOAM Warning : 
    From function virtual void Foam::wedgePolyPatch::calcGeometry(Foam::PstreamBuffers&)
    in file meshes/polyMesh/polyPatches/constraint/wedge/wedgePolyPatch.C at line 69
    Wedge patch 'LeftWedge' is not planar.
At local face at (0.011257869 -0.00049152919 0.01875) the normal (-0.04361943 -0.99904822 -5.2235259e-21) differs from the average normal (-0.043619388 -0.99904822 2.3351852e-21) by 1.7584971e-15
Either correct the patch or split it into planar parts
--> FOAM Warning : 
    From function virtual void Foam::wedgePolyPatch::calcGeometry(Foam::PstreamBuffers&)
    in file meshes/polyMesh/polyPatches/constraint/wedge/wedgePolyPatch.C at line 69
    Wedge patch 'LeftWedge' is not planar.
At local face at (0.011257869 -0.00049152919 0.02025) the normal (-0.04361943 -0.99904822 -5.2235259e-21) differs from the average normal (-0.043619388 -0.99904822 2.3351852e-21) by 1.7584971e-15
Either correct the patch or split it into planar parts
--> FOAM Warning : 
    From function virtual void Foam::wedgePolyPatch::calcGeometry(Foam::PstreamBuffers&)
    in file meshes/polyMesh/polyPatches/constraint/wedge/wedgePolyPatch.C at line 69
    Wedge patch 'LeftWedge' is not planar.
At local face at (0.011257869 -0.00049152919 0.02175) the normal (-0.04361943 -0.99904822 -5.2235259e-21) differs from the average normal (-0.043619388 -0.99904822 2.3351852e-21) by 1.7584971e-15
Either correct the patch or split it into planar parts
--> FOAM Warning : 
    From function virtual void Foam::wedgePolyPatch::calcGeometry(Foam::PstreamBuffers&)
    in file meshes/polyMesh/polyPatches/constraint/wedge/wedgePolyPatch.C at line 69
    Wedge patch 'LeftWedge' is not planar.
At local face at (0.011257869 -0.00049152919 0.02325) the normal (-0.04361943 -0.99904822 -5.2235259e-21) differs from the average normal (-0.043619388 -0.99904822 2.3351852e-21) by 1.7584971e-15
Either correct the patch or split it into planar parts
--> FOAM Warning : 
    From function virtual void Foam::wedgePolyPatch::calcGeometry(Foam::PstreamBuffers&)
    in file meshes/polyMesh/polyPatches/constraint/wedge/wedgePolyPatch.C at line 69
    Wedge patch 'LeftWedge' is not planar.
At local face at (0.011257869 -0.00049152919 0.02475) the normal (-0.04361943 -0.99904822 -5.2235259e-21) differs from the average normal (-0.043619388 -0.99904822 2.3351852e-21) by 1.7584971e-15
Either correct the patch or split it into planar parts
--> FOAM Warning : 
    From function virtual void Foam::wedgePolyPatch::calcGeometry(Foam::PstreamBuffers&)
    in file meshes/polyMesh/polyPatches/constraint/wedge/wedgePolyPatch.C at line 69
    Wedge patch 'LeftWedge' is not planar.
At local face at (0.011257869 -0.00049152919 0.02625) the normal (-0.04361943 -0.99904822 -5.2235259e-21) differs from the average normal (-0.043619388 -0.99904822 2.3351852e-21) by 1.7584971e-15
Either correct the patch or split it into planar parts
--> FOAM Warning : 
    From function virtual void Foam::wedgePolyPatch::calcGeometry(Foam::PstreamBuffers&)
    in file meshes/polyMesh/polyPatches/constraint/wedge/wedgePolyPatch.C at line 69
    Wedge patch 'LeftWedge' is not planar.
At local face at (0.011257869 -0.00049152919 0.02775) the normal (-0.04361943 -0.99904822 -5.2235259e-21) differs from the average normal (-0.043619388 -0.99904822 2.3351852e-21) by 1.7584971e-15
Either correct the patch or split it into planar parts
--> FOAM Warning : 
    From function virtual void Foam::wedgePolyPatch::calcGeometry(Foam::PstreamBuffers&)
    in file meshes/polyMesh/polyPatches/constraint/wedge/wedgePolyPatch.C at line 69
    Wedge patch 'LeftWedge' is not planar.
At local face at (0.011257869 -0.00049152919 0.02925) the normal (-0.04361943 -0.99904822 -5.2235259e-21) differs from the average normal (-0.043619388 -0.99904822 2.3351852e-21) by 1.7584971e-15
Either correct the patch or split it into planar parts
--> FOAM Warning : 
    From function virtual void Foam::wedgePolyPatch::calcGeometry(Foam::PstreamBuffers&)
    in file meshes/polyMesh/polyPatches/constraint/wedge/wedgePolyPatch.C at line 69
    Wedge patch 'LeftWedge' is not planar.
At local face at (0.011257869 -0.00049152919 0.03075) the normal (-0.04361943 -0.99904822 -5.2235259e-21) differs from the average normal (-0.043619388 -0.99904822 2.3351852e-21) by 1.7584971e-15
Either correct the patch or split it into planar parts
--> FOAM Warning : 
    From function virtual void Foam::wedgePolyPatch::calcGeometry(Foam::PstreamBuffers&)
    in file meshes/polyMesh/polyPatches/constraint/wedge/wedgePolyPatch.C at line 69
    Wedge patch 'LeftWedge' is not planar.
At local face at (0.011257869 -0.00049152919 0.03225) the normal (-0.04361943 -0.99904822 -5.2235259e-21) differs from the average normal (-0.043619388 -0.99904822 2.3351852e-21) by 1.7584971e-15
Either correct the patch or split it into planar parts
--> FOAM Warning : 
    From function virtual void Foam::wedgePolyPatch::calcGeometry(Foam::PstreamBuffers&)
    in file meshes/polyMesh/polyPatches/constraint/wedge/wedgePolyPatch.C at line 69
    Wedge patch 'LeftWedge' is not planar.
At local face at (0.011257869 -0.00049152919 0.03375) the normal (-0.04361943 -0.99904822 -5.2235259e-21) differs from the average normal (-0.043619388 -0.99904822 2.3351852e-21) by 1.7584971e-15
Either correct the patch or split it into planar parts
--> FOAM Warning : 
    From function virtual void Foam::wedgePolyPatch::calcGeometry(Foam::PstreamBuffers&)
    in file meshes/polyMesh/polyPatches/constraint/wedge/wedgePolyPatch.C at line 69
    Wedge patch 'LeftWedge' is not planar.
At local face at (0.011257869 -0.00049152919 0.03525) the normal (-0.04361943 -0.99904822 -5.2235259e-21) differs from the average normal (-0.043619388 -0.99904822 2.3351852e-21) by 1.7584971e-15
Either correct the patch or split it into planar parts
--> FOAM Warning : 
    From function virtual void Foam::wedgePolyPatch::calcGeometry(Foam::PstreamBuffers&)
    in file meshes/polyMesh/polyPatches/constraint/wedge/wedgePolyPatch.C at line 69
    Wedge patch 'LeftWedge' is not planar.
At local face at (0.011257869 -0.00049152919 0.03675) the normal (-0.04361943 -0.99904822 -5.2235259e-21) differs from the average normal (-0.043619388 -0.99904822 2.3351852e-21) by 1.7584971e-15
Either correct the patch or split it into planar parts
--> FOAM Warning : 
    From function virtual void Foam::wedgePolyPatch::calcGeometry(Foam::PstreamBuffers&)
    in file meshes/polyMesh/polyPatches/constraint/wedge/wedgePolyPatch.C at line 69
    Wedge patch 'LeftWedge' is not planar.
At local face at (0.011257869 -0.00049152919 0.03825) the normal (-0.04361943 -0.99904822 -5.2235259e-21) differs from the average normal (-0.043619388 -0.99904822 2.3351852e-21) by 1.7584971e-15
Either correct the patch or split it into planar parts
--> FOAM Warning : 
    From function virtual void Foam::wedgePolyPatch::calcGeometry(Foam::PstreamBuffers&)
    in file meshes/polyMesh/polyPatches/constraint/wedge/wedgePolyPatch.C at line 69
    Wedge patch 'LeftWedge' is not planar.
At local face at (0.011257869 -0.00049152919 0.03975) the normal (-0.04361943 -0.99904822 -5.2235259e-21) differs from the average normal (-0.043619388 -0.99904822 2.3351852e-21) by 1.7584971e-15
Either correct the patch or split it into planar parts
--> FOAM Warning : 
    From function virtual void Foam::wedgePolyPatch::calcGeometry(Foam::PstreamBuffers&)
    in file meshes/polyMesh/polyPatches/constraint/wedge/wedgePolyPatch.C at line 69
    Wedge patch 'LeftWedge' is not planar.
At local face at (0.011257869 -0.00049152919 0.04125) the normal (-0.04361943 -0.99904822 -5.2235259e-21) differs from the average normal (-0.043619388 -0.99904822 2.3351852e-21) by 1.7584971e-15
Either correct the patch or split it into planar parts
--> FOAM Warning : 
    From function virtual void Foam::wedgePolyPatch::calcGeometry(Foam::PstreamBuffers&)
    in file meshes/polyMesh/polyPatches/constraint/wedge/wedgePolyPatch.C at line 69
    Wedge patch 'LeftWedge' is not planar.
At local face at (0.011257869 -0.00049152919 0.04275) the normal (-0.04361943 -0.99904822 -5.2235259e-21) differs from the average normal (-0.043619388 -0.99904822 2.3351852e-21) by 1.7584971e-15
Either correct the patch or split it into planar parts
--> FOAM Warning : 
    From function virtual void Foam::wedgePolyPatch::calcGeometry(Foam::PstreamBuffers&)
    in file meshes/polyMesh/polyPatches/constraint/wedge/wedgePolyPatch.C at line 69
    Wedge patch 'LeftWedge' is not planar.
At local face at (0.011257869 -0.00049152919 0.04425) the normal (-0.04361943 -0.99904822 -5.2235259e-21) differs from the average normal (-0.043619388 -0.99904822 2.3351852e-21) by 1.7584971e-15
Either correct the patch or split it into planar parts
--> FOAM Warning : 
    From function virtual void Foam::wedgePolyPatch::calcGeometry(Foam::PstreamBuffers&)
    in file meshes/polyMesh/polyPatches/constraint/wedge/wedgePolyPatch.C at line 69
    Wedge patch 'LeftWedge' is not planar.
At local face at (0.011257869 -0.00049152919 0.04575) the normal (-0.04361943 -0.99904822 -5.2235259e-21) differs from the average normal (-0.043619388 -0.99904822 2.3351852e-21) by 1.7584971e-15
Either correct the patch or split it into planar parts
--> FOAM Warning : 
    From function virtual void Foam::wedgePolyPatch::calcGeometry(Foam::PstreamBuffers&)
    in file meshes/polyMesh/polyPatches/constraint/wedge/wedgePolyPatch.C at line 69
    Wedge patch 'LeftWedge' is not planar.
At local face at (0.011257869 -0.00049152919 0.04725) the normal (-0.04361943 -0.99904822 -5.2235259e-21) differs from the average normal (-0.043619388 -0.99904822 2.3351852e-21) by 1.7584971e-15
Either correct the patch or split it into planar parts
--> FOAM Warning : 
    From function virtual void Foam::wedgePolyPatch::calcGeometry(Foam::PstreamBuffers&)
    in file meshes/polyMesh/polyPatches/constraint/wedge/wedgePolyPatch.C at line 69
    Wedge patch 'LeftWedge' is not planar.
At local face at (0.011257869 -0.00049152919 0.04875) the normal (-0.04361943 -0.99904822 -5.2235259e-21) differs from the average normal (-0.043619388 -0.99904822 2.3351852e-21) by 1.7584971e-15
Either correct the patch or split it into planar parts
--> FOAM Warning : 
    From function virtual void Foam::wedgePolyPatch::calcGeometry(Foam::PstreamBuffers&)
    in file meshes/polyMesh/polyPatches/constraint/wedge/wedgePolyPatch.C at line 69
    Wedge patch 'LeftWedge' is not planar.
At local face at (0.011257869 -0.00049152919 0.05025) the normal (-0.04361943 -0.99904822 -5.2235259e-21) differs from the average normal (-0.043619388 -0.99904822 2.3351852e-21) by 1.7584971e-15
Either correct the patch or split it into planar parts
--> FOAM Warning : 
    From function virtual void Foam::wedgePolyPatch::calcGeometry(Foam::PstreamBuffers&)
    in file meshes/polyMesh/polyPatches/constraint/wedge/wedgePolyPatch.C at line 69
    Wedge patch 'LeftWedge' is not planar.
At local face at (0.011257869 -0.00049152919 0.05175) the normal (-0.04361943 -0.99904822 -5.2235259e-21) differs from the average normal (-0.043619388 -0.99904822 2.3351852e-21) by 1.7584971e-15
Either correct the patch or split it into planar parts
--> FOAM Warning : 
    From function virtual void Foam::wedgePolyPatch::calcGeometry(Foam::PstreamBuffers&)
    in file meshes/polyMesh/polyPatches/constraint/wedge/wedgePolyPatch.C at line 69
    Wedge patch 'LeftWedge' is not planar.
At local face at (0.011257869 -0.00049152919 0.05325) the normal (-0.04361943 -0.99904822 -5.2235259e-21) differs from the average normal (-0.043619388 -0.99904822 2.3351852e-21) by 1.7584971e-15
Either correct the patch or split it into planar parts
--> FOAM Warning : 
    From function virtual void Foam::wedgePolyPatch::calcGeometry(Foam::PstreamBuffers&)
    in file meshes/polyMesh/polyPatches/constraint/wedge/wedgePolyPatch.C at line 69
    Wedge patch 'LeftWedge' is not planar.
At local face at (0.011257869 -0.00049152919 0.05475) the normal (-0.04361943 -0.99904822 -5.2235259e-21) differs from the average normal (-0.043619388 -0.99904822 2.3351852e-21) by 1.7584971e-15
Either correct the patch or split it into planar parts
--> FOAM Warning : 
    From function virtual void Foam::wedgePolyPatch::calcGeometry(Foam::PstreamBuffers&)
    in file meshes/polyMesh/polyPatches/constraint/wedge/wedgePolyPatch.C at line 69
    Wedge patch 'LeftWedge' is not planar.
At local face at (0.011257869 -0.00049152919 0.05625) the normal (-0.04361943 -0.99904822 -5.2235259e-21) differs from the average normal (-0.043619388 -0.99904822 2.3351852e-21) by 1.7584971e-15
Either correct the patch or split it into planar parts
--> FOAM Warning : 
    From function virtual void Foam::wedgePolyPatch::calcGeometry(Foam::PstreamBuffers&)
    in file meshes/polyMesh/polyPatches/constraint/wedge/wedgePolyPatch.C at line 69
    Wedge patch 'LeftWedge' is not planar.
At local face at (0.011257869 -0.00049152919 0.05775) the normal (-0.04361943 -0.99904822 -5.2235259e-21) differs from the average normal (-0.043619388 -0.99904822 2.3351852e-21) by 1.7584971e-15
Either correct the patch or split it into planar parts
--> FOAM Warning : 
    From function virtual void Foam::wedgePolyPatch::calcGeometry(Foam::PstreamBuffers&)
    in file meshes/polyMesh/polyPatches/constraint/wedge/wedgePolyPatch.C at line 69
    Wedge patch 'LeftWedge' is not planar.
At local face at (0.011257869 -0.00049152919 0.05925) the normal (-0.04361943 -0.99904822 -5.2235259e-21) differs from the average normal (-0.043619388 -0.99904822 2.3351852e-21) by 1.7584971e-15
Either correct the patch or split it into planar parts
--> FOAM Warning : 
    From function virtual void Foam::wedgePolyPatch::calcGeometry(Foam::PstreamBuffers&)
    in file meshes/polyMesh/polyPatches/constraint/wedge/wedgePolyPatch.C at line 69
    Wedge patch 'LeftWedge' is not planar.
At local face at (0.011257869 -0.00049152919 0.06075) the normal (-0.04361943 -0.99904822 -5.2235259e-21) differs from the average normal (-0.043619388 -0.99904822 2.3351852e-21) by 1.7584971e-15
Either correct the patch or split it into planar parts
--> FOAM Warning : 
    From function virtual void Foam::wedgePolyPatch::calcGeometry(Foam::PstreamBuffers&)
    in file meshes/polyMesh/polyPatches/constraint/wedge/wedgePolyPatch.C at line 69
    Wedge patch 'LeftWedge' is not planar.
At local face at (0.011257869 -0.00049152919 0.06225) the normal (-0.04361943 -0.99904822 -5.2235259e-21) differs from the average normal (-0.043619388 -0.99904822 2.3351852e-21) by 1.7584971e-15
Either correct the patch or split it into planar parts
--> FOAM Warning : 
    From function virtual void Foam::wedgePolyPatch::calcGeometry(Foam::PstreamBuffers&)
    in file meshes/polyMesh/polyPatches/constraint/wedge/wedgePolyPatch.C at line 69
    Wedge patch 'LeftWedge' is not planar.
At local face at (0.011257869 -0.00049152919 0.06375) the normal (-0.04361943 -0.99904822 -5.2235259e-21) differs from the average normal (-0.043619388 -0.99904822 2.3351852e-21) by 1.7584971e-15
Either correct the patch or split it into planar parts
--> FOAM Warning : 
    From function virtual void Foam::wedgePolyPatch::calcGeometry(Foam::PstreamBuffers&)
    in file meshes/polyMesh/polyPatches/constraint/wedge/wedgePolyPatch.C at line 69
    Wedge patch 'LeftWedge' is not planar.
At local face at (0.011257869 -0.00049152919 0.06525) the normal (-0.04361943 -0.99904822 -5.2235259e-21) differs from the average normal (-0.043619388 -0.99904822 2.3351852e-21) by 1.7584971e-15
Either correct the patch or split it into planar parts
--> FOAM Warning : 
    From function virtual void Foam::wedgePolyPatch::calcGeometry(Foam::PstreamBuffers&)
    in file meshes/polyMesh/polyPatches/constraint/wedge/wedgePolyPatch.C at line 69
    Wedge patch 'LeftWedge' is not planar.
At local face at (0.011257869 -0.00049152919 0.06675) the normal (-0.04361943 -0.99904822 -5.2235259e-21) differs from the average normal (-0.043619388 -0.99904822 2.3351852e-21) by 1.7584971e-15
Either correct the patch or split it into planar parts
--> FOAM Warning : 
    From function virtual void Foam::wedgePolyPatch::calcGeometry(Foam::PstreamBuffers&)
    in file meshes/polyMesh/polyPatches/constraint/wedge/wedgePolyPatch.C at line 69
    Wedge patch 'LeftWedge' is not planar.
At local face at (0.011257869 -0.00049152919 0.06825) the normal (-0.04361943 -0.99904822 -5.2235259e-21) differs from the average normal (-0.043619388 -0.99904822 2.3351852e-21) by 1.7584971e-15
Either correct the patch or split it into planar parts
--> FOAM Warning : 
    From function virtual void Foam::wedgePolyPatch::calcGeometry(Foam::PstreamBuffers&)
    in file meshes/polyMesh/polyPatches/constraint/wedge/wedgePolyPatch.C at line 69
    Wedge patch 'LeftWedge' is not planar.
At local face at (0.011257869 -0.00049152919 0.06975) the normal (-0.04361943 -0.99904822 -5.2235259e-21) differs from the average normal (-0.043619388 -0.99904822 2.3351852e-21) by 1.7584971e-15
Either correct the patch or split it into planar parts
--> FOAM Warning : 
    From function virtual void Foam::wedgePolyPatch::calcGeometry(Foam::PstreamBuffers&)
    in file meshes/polyMesh/polyPatches/constraint/wedge/wedgePolyPatch.C at line 69
    Wedge patch 'LeftWedge' is not planar.
At local face at (0.011257869 -0.00049152919 0.07125) the normal (-0.04361943 -0.99904822 -5.2235259e-21) differs from the average normal (-0.043619388 -0.99904822 2.3351852e-21) by 1.7584971e-15
Either correct the patch or split it into planar parts
--> FOAM Warning : 
    From function virtual void Foam::wedgePolyPatch::calcGeometry(Foam::PstreamBuffers&)
    in file meshes/polyMesh/polyPatches/constraint/wedge/wedgePolyPatch.C at line 69
    Wedge patch 'LeftWedge' is not planar.
At local face at (0.011257869 -0.00049152919 0.07275) the normal (-0.04361943 -0.99904822 -5.2235259e-21) differs from the average normal (-0.043619388 -0.99904822 2.3351852e-21) by 1.7584971e-15
Either correct the patch or split it into planar parts
--> FOAM Warning : 
    From function virtual void Foam::wedgePolyPatch::calcGeometry(Foam::PstreamBuffers&)
    in file meshes/polyMesh/polyPatches/constraint/wedge/wedgePolyPatch.C at line 69
    Wedge patch 'LeftWedge' is not planar.
At local face at (0.011257869 -0.00049152919 0.07425) the normal (-0.04361943 -0.99904822 -5.2235259e-21) differs from the average normal (-0.043619388 -0.99904822 2.3351852e-21) by 1.7584971e-15
Either correct the patch or split it into planar parts
--> FOAM Warning : 
    From function virtual void Foam::wedgePolyPatch::calcGeometry(Foam::PstreamBuffers&)
    in file meshes/polyMesh/polyPatches/constraint/wedge/wedgePolyPatch.C at line 69
    Wedge patch 'LeftWedge' is not planar.
At local face at (0.011257869 -0.00049152919 0.07575) the normal (-0.04361943 -0.99904822 -5.2235259e-21) differs from the average normal (-0.043619388 -0.99904822 2.3351852e-21) by 1.7584971e-15
Either correct the patch or split it into planar parts
--> FOAM Warning : 
    From function virtual void Foam::wedgePolyPatch::calcGeometry(Foam::PstreamBuffers&)
    in file meshes/polyMesh/polyPatches/constraint/wedge/wedgePolyPatch.C at line 69
    Wedge patch 'LeftWedge' is not planar.
At local face at (0.011257869 -0.00049152919 0.07725) the normal (-0.04361943 -0.99904822 -5.2235259e-21) differs from the average normal (-0.043619388 -0.99904822 2.3351852e-21) by 1.7584971e-15
Either correct the patch or split it into planar parts
--> FOAM Warning : 
    From function virtual void Foam::wedgePolyPatch::calcGeometry(Foam::PstreamBuffers&)
    in file meshes/polyMesh/polyPatches/constraint/wedge/wedgePolyPatch.C at line 69
    Wedge patch 'LeftWedge' is not planar.
At local face at (0.011257869 -0.00049152919 0.07875) the normal (-0.04361943 -0.99904822 -5.2235259e-21) differs from the average normal (-0.043619388 -0.99904822 2.3351852e-21) by 1.7584971e-15
Either correct the patch or split it into planar parts
--> FOAM Warning : 
    From function virtual void Foam::wedgePolyPatch::calcGeometry(Foam::PstreamBuffers&)
    in file meshes/polyMesh/polyPatches/constraint/wedge/wedgePolyPatch.C at line 69
    Wedge patch 'LeftWedge' is not planar.
At local face at (0.011257869 -0.00049152919 0.08025) the normal (-0.04361943 -0.99904822 -5.2235259e-21) differs from the average normal (-0.043619388 -0.99904822 2.3351852e-21) by 1.7584971e-15
Either correct the patch or split it into planar parts
--> FOAM Warning : 
    From function virtual void Foam::wedgePolyPatch::calcGeometry(Foam::PstreamBuffers&)
    in file meshes/polyMesh/polyPatches/constraint/wedge/wedgePolyPatch.C at line 69
    Wedge patch 'LeftWedge' is not planar.
At local face at (0.011257869 -0.00049152919 0.08175) the normal (-0.04361943 -0.99904822 -5.2235259e-21) differs from the average normal (-0.043619388 -0.99904822 2.3351852e-21) by 1.7584971e-15
Either correct the patch or split it into planar parts
--> FOAM Warning : 
    From function virtual void Foam::wedgePolyPatch::calcGeometry(Foam::PstreamBuffers&)
    in file meshes/polyMesh/polyPatches/constraint/wedge/wedgePolyPatch.C at line 69
    Wedge patch 'LeftWedge' is not planar.
At local face at (0.011257869 -0.00049152919 0.08325) the normal (-0.04361943 -0.99904822 -5.2235259e-21) differs from the average normal (-0.043619388 -0.99904822 2.3351852e-21) by 1.7584971e-15
Either correct the patch or split it into planar parts
--> FOAM Warning : 
    From function virtual void Foam::wedgePolyPatch::calcGeometry(Foam::PstreamBuffers&)
    in file meshes/polyMesh/polyPatches/constraint/wedge/wedgePolyPatch.C at line 69
    Wedge patch 'LeftWedge' is not planar.
At local face at (0.011257869 -0.00049152919 0.08475) the normal (-0.04361943 -0.99904822 -5.2235259e-21) differs from the average normal (-0.043619388 -0.99904822 2.3351852e-21) by 1.7584971e-15
Either correct the patch or split it into planar parts
--> FOAM Warning : 
    From function virtual void Foam::wedgePolyPatch::calcGeometry(Foam::PstreamBuffers&)
    in file meshes/polyMesh/polyPatches/constraint/wedge/wedgePolyPatch.C at line 69
    Wedge patch 'LeftWedge' is not planar.
At local face at (0.011257869 -0.00049152919 0.08625) the normal (-0.04361943 -0.99904822 -5.2235259e-21) differs from the average normal (-0.043619388 -0.99904822 2.3351852e-21) by 1.7584971e-15
Either correct the patch or split it into planar parts
--> FOAM Warning : 
    From function virtual void Foam::wedgePolyPatch::calcGeometry(Foam::PstreamBuffers&)
    in file meshes/polyMesh/polyPatches/constraint/wedge/wedgePolyPatch.C at line 69
    Wedge patch 'LeftWedge' is not planar.
At local face at (0.011257869 -0.00049152919 0.08775) the normal (-0.04361943 -0.99904822 -5.2235259e-21) differs from the average normal (-0.043619388 -0.99904822 2.3351852e-21) by 1.7584971e-15
Either correct the patch or split it into planar parts
--> FOAM Warning : 
    From function virtual void Foam::wedgePolyPatch::calcGeometry(Foam::PstreamBuffers&)
    in file meshes/polyMesh/polyPatches/constraint/wedge/wedgePolyPatch.C at line 69
    Wedge patch 'LeftWedge' is not planar.
At local face at (0.011257869 -0.00049152919 0.08925) the normal (-0.04361943 -0.99904822 -5.2235259e-21) differs from the average normal (-0.043619388 -0.99904822 2.3351852e-21) by 1.7584971e-15
Either correct the patch or split it into planar parts
--> FOAM Warning : 
    From function virtual void Foam::wedgePolyPatch::calcGeometry(Foam::PstreamBuffers&)
    in file meshes/polyMesh/polyPatches/constraint/wedge/wedgePolyPatch.C at line 69
    Wedge patch 'LeftWedge' is not planar.
At local face at (0.011257869 -0.00049152919 0.09075) the normal (-0.04361943 -0.99904822 -5.2235259e-21) differs from the average normal (-0.043619388 -0.99904822 2.3351852e-21) by 1.7584971e-15
Either correct the patch or split it into planar parts
--> FOAM Warning : 
    From function virtual void Foam::wedgePolyPatch::calcGeometry(Foam::PstreamBuffers&)
    in file meshes/polyMesh/polyPatches/constraint/wedge/wedgePolyPatch.C at line 69
    Wedge patch 'LeftWedge' is not planar.
At local face at (0.011257869 -0.00049152919 0.09225) the normal (-0.04361943 -0.99904822 -5.2235259e-21) differs from the average normal (-0.043619388 -0.99904822 2.3351852e-21) by 1.7584971e-15
Either correct the patch or split it into planar parts
--> FOAM Warning : 
    From function virtual void Foam::wedgePolyPatch::calcGeometry(Foam::PstreamBuffers&)
    in file meshes/polyMesh/polyPatches/constraint/wedge/wedgePolyPatch.C at line 69
    Wedge patch 'LeftWedge' is not planar.
At local face at (0.011257869 -0.00049152919 0.09375) the normal (-0.04361943 -0.99904822 -5.2235259e-21) differs from the average normal (-0.043619388 -0.99904822 2.3351852e-21) by 1.7584971e-15
Either correct the patch or split it into planar parts
--> FOAM Warning : 
    From function virtual void Foam::wedgePolyPatch::calcGeometry(Foam::PstreamBuffers&)
    in file meshes/polyMesh/polyPatches/constraint/wedge/wedgePolyPatch.C at line 69
    Wedge patch 'LeftWedge' is not planar.
At local face at (0.011257869 -0.00049152919 0.09525) the normal (-0.04361943 -0.99904822 -5.2235259e-21) differs from the average normal (-0.043619388 -0.99904822 2.3351852e-21) by 1.7584971e-15
Either correct the patch or split it into planar parts
--> FOAM Warning : 
    From function virtual void Foam::wedgePolyPatch::calcGeometry(Foam::PstreamBuffers&)
    in file meshes/polyMesh/polyPatches/constraint/wedge/wedgePolyPatch.C at line 69
    Wedge patch 'LeftWedge' is not planar.
At local face at (0.011257869 -0.00049152919 0.09675) the normal (-0.04361943 -0.99904822 -5.2235259e-21) differs from the average normal (-0.043619388 -0.99904822 2.3351852e-21) by 1.7584971e-15
Either correct the patch or split it into planar parts
--> FOAM Warning : 
    From function virtual void Foam::wedgePolyPatch::calcGeometry(Foam::PstreamBuffers&)
    in file meshes/polyMesh/polyPatches/constraint/wedge/wedgePolyPatch.C at line 69
    Wedge patch 'LeftWedge' is not planar.
At local face at (0.011257869 -0.00049152919 0.09825) the normal (-0.04361943 -0.99904822 -5.2235259e-21) differs from the average normal (-0.043619388 -0.99904822 2.3351852e-21) by 1.7584971e-15
Either correct the patch or split it into planar parts
--> FOAM Warning : 
    From function virtual void Foam::wedgePolyPatch::calcGeometry(Foam::PstreamBuffers&)
    in file meshes/polyMesh/polyPatches/constraint/wedge/wedgePolyPatch.C at line 69
    Wedge patch 'LeftWedge' is not planar.
At local face at (0.011257869 -0.00049152919 0.09975) the normal (-0.04361943 -0.99904822 -5.2235259e-21) differs from the average normal (-0.043619388 -0.99904822 2.3351852e-21) by 1.7584971e-15
Either correct the patch or split it into planar parts
--> FOAM Warning : 
    From function virtual void Foam::wedgePolyPatch::calcGeometry(Foam::PstreamBuffers&)
    in file meshes/polyMesh/polyPatches/constraint/wedge/wedgePolyPatch.C at line 69
    Wedge patch 'LeftWedge' is not planar.
At local face at (0.011257869 -0.00049152919 0.10125) the normal (-0.04361943 -0.99904822 -5.2235259e-21) differs from the average normal (-0.043619388 -0.99904822 2.3351852e-21) by 1.7584971e-15
Either correct the patch or split it into planar parts
--> FOAM Warning : 
    From function virtual void Foam::wedgePolyPatch::calcGeometry(Foam::PstreamBuffers&)
    in file meshes/polyMesh/polyPatches/constraint/wedge/wedgePolyPatch.C at line 69
    Wedge patch 'LeftWedge' is not planar.
At local face at (0.011257869 -0.00049152919 0.10275) the normal (-0.04361943 -0.99904822 -5.2235259e-21) differs from the average normal (-0.043619388 -0.99904822 2.3351852e-21) by 1.7584971e-15
Either correct the patch or split it into planar parts
--> FOAM Warning : 
    From function virtual void Foam::wedgePolyPatch::calcGeometry(Foam::PstreamBuffers&)
    in file meshes/polyMesh/polyPatches/constraint/wedge/wedgePolyPatch.C at line 69
    Wedge patch 'LeftWedge' is not planar.
At local face at (0.011257869 -0.00049152919 0.10425) the normal (-0.04361943 -0.99904822 -5.2235259e-21) differs from the average normal (-0.043619388 -0.99904822 2.3351852e-21) by 1.7584971e-15
Either correct the patch or split it into planar parts
--> FOAM Warning : 
    From function virtual void Foam::wedgePolyPatch::calcGeometry(Foam::PstreamBuffers&)
    in file meshes/polyMesh/polyPatches/constraint/wedge/wedgePolyPatch.C at line 69
    Wedge patch 'LeftWedge' is not planar.
At local face at (0.011257869 -0.00049152919 0.10575) the normal (-0.04361943 -0.99904822 -5.2235259e-21) differs from the average normal (-0.043619388 -0.99904822 2.3351852e-21) by 1.7584971e-15
Either correct the patch or split it into planar parts
--> FOAM Warning : 
    From function virtual void Foam::wedgePolyPatch::calcGeometry(Foam::PstreamBuffers&)
    in file meshes/polyMesh/polyPatches/constraint/wedge/wedgePolyPatch.C at line 69
    Wedge patch 'LeftWedge' is not planar.
At local face at (0.011257869 -0.00049152919 0.10725) the normal (-0.04361943 -0.99904822 -5.2235259e-21) differs from the average normal (-0.043619388 -0.99904822 2.3351852e-21) by 1.7584971e-15
Either correct the patch or split it into planar parts
--> FOAM Warning : 
    From function virtual void Foam::wedgePolyPatch::calcGeometry(Foam::PstreamBuffers&)
    in file meshes/polyMesh/polyPatches/constraint/wedge/wedgePolyPatch.C at line 69
    Wedge patch 'LeftWedge' is not planar.
At local face at (0.011257869 -0.00049152919 0.10875) the normal (-0.04361943 -0.99904822 -5.2235259e-21) differs from the average normal (-0.043619388 -0.99904822 2.3351852e-21) by 1.7584971e-15
Either correct the patch or split it into planar parts
--> FOAM Warning : 
    From function virtual void Foam::wedgePolyPatch::calcGeometry(Foam::PstreamBuffers&)
    in file meshes/polyMesh/polyPatches/constraint/wedge/wedgePolyPatch.C at line 69
    Wedge patch 'LeftWedge' is not planar.
At local face at (0.011257869 -0.00049152919 0.11025) the normal (-0.04361943 -0.99904822 -5.2235259e-21) differs from the average normal (-0.043619388 -0.99904822 2.3351852e-21) by 1.7584971e-15
Either correct the patch or split it into planar parts
--> FOAM Warning : 
    From function virtual void Foam::wedgePolyPatch::calcGeometry(Foam::PstreamBuffers&)
    in file meshes/polyMesh/polyPatches/constraint/wedge/wedgePolyPatch.C at line 69
    Wedge patch 'LeftWedge' is not planar.
At local face at (0.011257869 -0.00049152919 0.11175) the normal (-0.04361943 -0.99904822 -5.2235259e-21) differs from the average normal (-0.043619388 -0.99904822 2.3351852e-21) by 1.7584971e-15
Either correct the patch or split it into planar parts
--> FOAM Warning : 
    From function virtual void Foam::wedgePolyPatch::calcGeometry(Foam::PstreamBuffers&)
    in file meshes/polyMesh/polyPatches/constraint/wedge/wedgePolyPatch.C at line 69
    Wedge patch 'LeftWedge' is not planar.
At local face at (0.011257869 -0.00049152919 0.11325) the normal (-0.04361943 -0.99904822 -5.2235259e-21) differs from the average normal (-0.043619388 -0.99904822 2.3351852e-21) by 1.7584971e-15
Either correct the patch or split it into planar parts
--> FOAM Warning : 
    From function virtual void Foam::wedgePolyPatch::calcGeometry(Foam::PstreamBuffers&)
    in file meshes/polyMesh/polyPatches/constraint/wedge/wedgePolyPatch.C at line 69
    Wedge patch 'LeftWedge' is not planar.
At local face at (0.011257869 -0.00049152919 0.11475) the normal (-0.04361943 -0.99904822 -5.2235259e-21) differs from the average normal (-0.043619388 -0.99904822 2.3351852e-21) by 1.7584971e-15
Either correct the patch or split it into planar parts
--> FOAM Warning : 
    From function virtual void Foam::wedgePolyPatch::calcGeometry(Foam::PstreamBuffers&)
    in file meshes/polyMesh/polyPatches/constraint/wedge/wedgePolyPatch.C at line 69
    Wedge patch 'LeftWedge' is not planar.
At local face at (0.011257869 -0.00049152919 0.11625) the normal (-0.04361943 -0.99904822 -5.2235259e-21) differs from the average normal (-0.043619388 -0.99904822 2.3351852e-21) by 1.7584971e-15
Either correct the patch or split it into planar parts
--> FOAM Warning : 
    From function virtual void Foam::wedgePolyPatch::calcGeometry(Foam::PstreamBuffers&)
    in file meshes/polyMesh/polyPatches/constraint/wedge/wedgePolyPatch.C at line 69
    Wedge patch 'LeftWedge' is not planar.
At local face at (0.011257869 -0.00049152919 0.11775) the normal (-0.04361943 -0.99904822 -5.2235259e-21) differs from the average normal (-0.043619388 -0.99904822 2.3351852e-21) by 1.7584971e-15
Either correct the patch or split it into planar parts
--> FOAM Warning : 
    From function virtual void Foam::wedgePolyPatch::calcGeometry(Foam::PstreamBuffers&)
    in file meshes/polyMesh/polyPatches/constraint/wedge/wedgePolyPatch.C at line 69
    Wedge patch 'LeftWedge' is not planar.
At local face at (0.011257869 -0.00049152919 0.11925) the normal (-0.04361943 -0.99904822 -5.2235259e-21) differs from the average normal (-0.043619388 -0.99904822 2.3351852e-21) by 1.7584971e-15
Either correct the patch or split it into planar parts
--> FOAM Warning : 
    From function virtual void Foam::wedgePolyPatch::calcGeometry(Foam::PstreamBuffers&)
    in file meshes/polyMesh/polyPatches/constraint/wedge/wedgePolyPatch.C at line 69
    Wedge patch 'LeftWedge' is not planar.
At local face at (0.011257869 -0.00049152919 0.12075) the normal (-0.04361943 -0.99904822 -5.2235259e-21) differs from the average normal (-0.043619388 -0.99904822 2.3351852e-21) by 1.7584971e-15
Either correct the patch or split it into planar parts
--> FOAM Warning : 
    From function virtual void Foam::wedgePolyPatch::calcGeometry(Foam::PstreamBuffers&)
    in file meshes/polyMesh/polyPatches/constraint/wedge/wedgePolyPatch.C at line 69
    Wedge patch 'LeftWedge' is not planar.
At local face at (0.011257869 -0.00049152919 0.12225) the normal (-0.04361943 -0.99904822 -5.2235259e-21) differs from the average normal (-0.043619388 -0.99904822 2.3351852e-21) by 1.7584971e-15
Either correct the patch or split it into planar parts
--> FOAM Warning : 
    From function virtual void Foam::wedgePolyPatch::calcGeometry(Foam::PstreamBuffers&)
    in file meshes/polyMesh/polyPatches/constraint/wedge/wedgePolyPatch.C at line 69
    Wedge patch 'LeftWedge' is not planar.
At local face at (0.011257869 -0.00049152919 0.12375) the normal (-0.04361943 -0.99904822 -5.2235259e-21) differs from the average normal (-0.043619388 -0.99904822 2.3351852e-21) by 1.7584971e-15
Either correct the patch or split it into planar parts
--> FOAM Warning : 
    From function virtual void Foam::wedgePolyPatch::calcGeometry(Foam::PstreamBuffers&)
    in file meshes/polyMesh/polyPatches/constraint/wedge/wedgePolyPatch.C at line 69
    Wedge patch 'LeftWedge' is not planar.
At local face at (0.011257869 -0.00049152919 0.12525) the normal (-0.04361943 -0.99904822 -5.2235259e-21) differs from the average normal (-0.043619388 -0.99904822 2.3351852e-21) by 1.7584971e-15
Either correct the patch or split it into planar parts
--> FOAM Warning : 
    From function virtual void Foam::wedgePolyPatch::calcGeometry(Foam::PstreamBuffers&)
    in file meshes/polyMesh/polyPatches/constraint/wedge/wedgePolyPatch.C at line 69
    Wedge patch 'LeftWedge' is not planar.
At local face at (0.011257869 -0.00049152919 0.12675) the normal (-0.04361943 -0.99904822 -5.2235259e-21) differs from the average normal (-0.043619388 -0.99904822 2.3351852e-21) by 1.7584971e-15
Either correct the patch or split it into planar parts
--> FOAM Warning : 
    From function virtual void Foam::wedgePolyPatch::calcGeometry(Foam::PstreamBuffers&)
    in file meshes/polyMesh/polyPatches/constraint/wedge/wedgePolyPatch.C at line 69
    Wedge patch 'LeftWedge' is not planar.
At local face at (0.011257869 -0.00049152919 0.12825) the normal (-0.04361943 -0.99904822 -5.2235259e-21) differs from the average normal (-0.043619388 -0.99904822 2.3351852e-21) by 1.7584971e-15
Either correct the patch or split it into planar parts
--> FOAM Warning : 
    From function virtual void Foam::wedgePolyPatch::calcGeometry(Foam::PstreamBuffers&)
    in file meshes/polyMesh/polyPatches/constraint/wedge/wedgePolyPatch.C at line 69
    Wedge patch 'LeftWedge' is not planar.
At local face at (0.011257869 -0.00049152919 0.12975) the normal (-0.04361943 -0.99904822 -5.2235259e-21) differs from the average normal (-0.043619388 -0.99904822 2.3351852e-21) by 1.7584971e-15
Either correct the patch or split it into planar parts
--> FOAM Warning : 
    From function virtual void Foam::wedgePolyPatch::calcGeometry(Foam::PstreamBuffers&)
    in file meshes/polyMesh/polyPatches/constraint/wedge/wedgePolyPatch.C at line 69
    Wedge patch 'LeftWedge' is not planar.
At local face at (0.011257869 -0.00049152919 0.13125) the normal (-0.04361943 -0.99904822 -5.2235259e-21) differs from the average normal (-0.043619388 -0.99904822 2.3351852e-21) by 1.7584971e-15
Either correct the patch or split it into planar parts
--> FOAM Warning : 
    From function virtual void Foam::wedgePolyPatch::calcGeometry(Foam::PstreamBuffers&)
    in file meshes/polyMesh/polyPatches/constraint/wedge/wedgePolyPatch.C at line 69
    Wedge patch 'LeftWedge' is not planar.
At local face at (0.011257869 -0.00049152919 0.13275) the normal (-0.04361943 -0.99904822 -5.2235259e-21) differs from the average normal (-0.043619388 -0.99904822 2.3351852e-21) by 1.7584971e-15
Either correct the patch or split it into planar parts
--> FOAM Warning : 
    From function virtual void Foam::wedgePolyPatch::calcGeometry(Foam::PstreamBuffers&)
    in file meshes/polyMesh/polyPatches/constraint/wedge/wedgePolyPatch.C at line 69
    Wedge patch 'LeftWedge' is not planar.
At local face at (0.011257869 -0.00049152919 0.13425) the normal (-0.04361943 -0.99904822 -5.2235259e-21) differs from the average normal (-0.043619388 -0.99904822 2.3351852e-21) by 1.7584971e-15
Either correct the patch or split it into planar parts
--> FOAM Warning : 
    From function virtual void Foam::wedgePolyPatch::calcGeometry(Foam::PstreamBuffers&)
    in file meshes/polyMesh/polyPatches/constraint/wedge/wedgePolyPatch.C at line 69
    Wedge patch 'LeftWedge' is not planar.
At local face at (0.011257869 -0.00049152919 0.13575) the normal (-0.04361943 -0.99904822 -5.2235259e-21) differs from the average normal (-0.043619388 -0.99904822 2.3351852e-21) by 1.7584971e-15
Either correct the patch or split it into planar parts
--> FOAM Warning : 
    From function virtual void Foam::wedgePolyPatch::calcGeometry(Foam::PstreamBuffers&)
    in file meshes/polyMesh/polyPatches/constraint/wedge/wedgePolyPatch.C at line 69
    Wedge patch 'LeftWedge' is not planar.
At local face at (0.011257869 -0.00049152919 0.13725) the normal (-0.04361943 -0.99904822 -5.2235259e-21) differs from the average normal (-0.043619388 -0.99904822 2.3351852e-21) by 1.7584971e-15
Either correct the patch or split it into planar parts
--> FOAM Warning : 
    From function virtual void Foam::wedgePolyPatch::calcGeometry(Foam::PstreamBuffers&)
    in file meshes/polyMesh/polyPatches/constraint/wedge/wedgePolyPatch.C at line 69
    Wedge patch 'LeftWedge' is not planar.
At local face at (0.011257869 -0.00049152919 0.13875) the normal (-0.04361943 -0.99904822 -5.2235259e-21) differs from the average normal (-0.043619388 -0.99904822 2.3351852e-21) by 1.7584971e-15
Either correct the patch or split it into planar parts
--> FOAM Warning : 
    From function virtual void Foam::wedgePolyPatch::calcGeometry(Foam::PstreamBuffers&)
    in file meshes/polyMesh/polyPatches/constraint/wedge/wedgePolyPatch.C at line 69
    Wedge patch 'LeftWedge' is not planar.
At local face at (0.011257869 -0.00049152919 0.14025) the normal (-0.04361943 -0.99904822 -5.2235259e-21) differs from the average normal (-0.043619388 -0.99904822 2.3351852e-21) by 1.7584971e-15
Either correct the patch or split it into planar parts
--> FOAM Warning : 
    From function virtual void Foam::wedgePolyPatch::calcGeometry(Foam::PstreamBuffers&)
    in file meshes/polyMesh/polyPatches/constraint/wedge/wedgePolyPatch.C at line 69
    Wedge patch 'LeftWedge' is not planar.
At local face at (0.011257869 -0.00049152919 0.14175) the normal (-0.04361943 -0.99904822 -5.2235259e-21) differs from the average normal (-0.043619388 -0.99904822 2.3351852e-21) by 1.7584971e-15
Either correct the patch or split it into planar parts
--> FOAM Warning : 
    From function virtual void Foam::wedgePolyPatch::calcGeometry(Foam::PstreamBuffers&)
    in file meshes/polyMesh/polyPatches/constraint/wedge/wedgePolyPatch.C at line 69
    Wedge patch 'LeftWedge' is not planar.
At local face at (0.011257869 -0.00049152919 0.14325) the normal (-0.04361943 -0.99904822 -5.2235259e-21) differs from the average normal (-0.043619388 -0.99904822 2.3351852e-21) by 1.7584971e-15
Either correct the patch or split it into planar parts
--> FOAM Warning : 
    From function virtual void Foam::wedgePolyPatch::calcGeometry(Foam::PstreamBuffers&)
    in file meshes/polyMesh/polyPatches/constraint/wedge/wedgePolyPatch.C at line 69
    Wedge patch 'LeftWedge' is not planar.
At local face at (0.011257869 -0.00049152919 0.14475) the normal (-0.04361943 -0.99904822 -5.2235259e-21) differs from the average normal (-0.043619388 -0.99904822 2.3351852e-21) by 1.7584971e-15
Either correct the patch or split it into planar parts
--> FOAM Warning : 
    From function virtual void Foam::wedgePolyPatch::calcGeometry(Foam::PstreamBuffers&)
    in file meshes/polyMesh/polyPatches/constraint/wedge/wedgePolyPatch.C at line 69
    Wedge patch 'LeftWedge' is not planar.
At local face at (0.011257869 -0.00049152919 0.14625) the normal (-0.04361943 -0.99904822 -5.2235259e-21) differs from the average normal (-0.043619388 -0.99904822 2.3351852e-21) by 1.7584971e-15
Either correct the patch or split it into planar parts
--> FOAM Warning : 
    From function virtual void Foam::wedgePolyPatch::calcGeometry(Foam::PstreamBuffers&)
    in file meshes/polyMesh/polyPatches/constraint/wedge/wedgePolyPatch.C at line 69
    Wedge patch 'LeftWedge' is not planar.
At local face at (0.011257869 -0.00049152919 0.14775) the normal (-0.04361943 -0.99904822 -5.2235259e-21) differs from the average normal (-0.043619388 -0.99904822 2.3351852e-21) by 1.7584971e-15
Either correct the patch or split it into planar parts
--> FOAM Warning : 
    From function virtual void Foam::wedgePolyPatch::calcGeometry(Foam::PstreamBuffers&)
    in file meshes/polyMesh/polyPatches/constraint/wedge/wedgePolyPatch.C at line 69
    Wedge patch 'LeftWedge' is not planar.
At local face at (0.011257869 -0.00049152919 0.14925) the normal (-0.04361943 -0.99904822 -5.2235259e-21) differs from the average normal (-0.043619388 -0.99904822 2.3351852e-21) by 1.7584971e-15
Either correct the patch or split it into planar parts
--> FOAM Warning : 
    From function virtual void Foam::wedgePolyPatch::calcGeometry(Foam::PstreamBuffers&)
    in file meshes/polyMesh/polyPatches/constraint/wedge/wedgePolyPatch.C at line 69
    Wedge patch 'LeftWedge' is not planar.
At local face at (0.011264018 -0.00049179764 0.00075) the normal (-0.043619344 -0.99904822 0) differs from the average normal (-0.043619388 -0.99904822 2.3351852e-21) by 1.8781821e-15
Either correct the patch or split it into planar parts
--> FOAM Warning : 
    From function virtual void Foam::wedgePolyPatch::calcGeometry(Foam::PstreamBuffers&)
    in file meshes/polyMesh/polyPatches/constraint/wedge/wedgePolyPatch.C at line 69
    Wedge patch 'LeftWedge' is not planar.
At local face at (0.011264018 -0.00049179765 0.00225) the normal (-0.043619344 -0.99904822 0) differs from the average normal (-0.043619388 -0.99904822 2.3351852e-21) by 1.8781821e-15
Either correct the patch or split it into planar parts
--> FOAM Warning : 
    From function virtual void Foam::wedgePolyPatch::calcGeometry(Foam::PstreamBuffers&)
    in file meshes/polyMesh/polyPatches/constraint/wedge/wedgePolyPatch.C at line 69
    Wedge patch 'LeftWedge' is not planar.
At local face at (0.011264018 -0.00049179765 0.00375) the normal (-0.043619344 -0.99904822 0) differs from the average normal (-0.043619388 -0.99904822 2.3351852e-21) by 1.8781821e-15
Either correct the patch or split it into planar parts
--> FOAM Warning : 
    From function virtual void Foam::wedgePolyPatch::calcGeometry(Foam::PstreamBuffers&)
    in file meshes/polyMesh/polyPatches/constraint/wedge/wedgePolyPatch.C at line 69
    Wedge patch 'LeftWedge' is not planar.
At local face at (0.011264018 -0.00049179764 0.00525) the normal (-0.043619344 -0.99904822 0) differs from the average normal (-0.043619388 -0.99904822 2.3351852e-21) by 1.8781821e-15
Either correct the patch or split it into planar parts
--> FOAM Warning : 
    From function virtual void Foam::wedgePolyPatch::calcGeometry(Foam::PstreamBuffers&)
    in file meshes/polyMesh/polyPatches/constraint/wedge/wedgePolyPatch.C at line 69
    Wedge patch 'LeftWedge' is not planar.
At local face at (0.011264018 -0.00049179765 0.00675) the normal (-0.043619344 -0.99904822 0) differs from the average normal (-0.043619388 -0.99904822 2.3351852e-21) by 1.8781821e-15
Either correct the patch or split it into planar parts
--> FOAM Warning : 
    From function virtual void Foam::wedgePolyPatch::calcGeometry(Foam::PstreamBuffers&)
    in file meshes/polyMesh/polyPatches/constraint/wedge/wedgePolyPatch.C at line 69
    Wedge patch 'LeftWedge' is not planar.
At local face at (0.011264018 -0.00049179765 0.00825) the normal (-0.043619344 -0.99904822 0) differs from the average normal (-0.043619388 -0.99904822 2.3351852e-21) by 1.8781821e-15
Either correct the patch or split it into planar parts
--> FOAM Warning : 
    From function virtual void Foam::wedgePolyPatch::calcGeometry(Foam::PstreamBuffers&)
    in file meshes/polyMesh/polyPatches/constraint/wedge/wedgePolyPatch.C at line 69
    Wedge patch 'LeftWedge' is not planar.
At local face at (0.011264018 -0.00049179765 0.00975) the normal (-0.043619344 -0.99904822 0) differs from the average normal (-0.043619388 -0.99904822 2.3351852e-21) by 1.8781821e-15
Either correct the patch or split it into planar parts
--> FOAM Warning : 
    From function virtual void Foam::wedgePolyPatch::calcGeometry(Foam::PstreamBuffers&)
    in file meshes/polyMesh/polyPatches/constraint/wedge/wedgePolyPatch.C at line 69
    Wedge patch 'LeftWedge' is not planar.
At local face at (0.011264018 -0.00049179765 0.01125) the normal (-0.043619344 -0.99904822 0) differs from the average normal (-0.043619388 -0.99904822 2.3351852e-21) by 1.8781821e-15
Either correct the patch or split it into planar parts
--> FOAM Warning : 
    From function virtual void Foam::wedgePolyPatch::calcGeometry(Foam::PstreamBuffers&)
    in file meshes/polyMesh/polyPatches/constraint/wedge/wedgePolyPatch.C at line 69
    Wedge patch 'LeftWedge' is not planar.
At local face at (0.011264018 -0.00049179765 0.01275) the normal (-0.043619344 -0.99904822 0) differs from the average normal (-0.043619388 -0.99904822 2.3351852e-21) by 1.8781821e-15
Either correct the patch or split it into planar parts
--> FOAM Warning : 
    From function virtual void Foam::wedgePolyPatch::calcGeometry(Foam::PstreamBuffers&)
    in file meshes/polyMesh/polyPatches/constraint/wedge/wedgePolyPatch.C at line 69
    Wedge patch 'LeftWedge' is not planar.
At local face at (0.011264018 -0.00049179765 0.01425) the normal (-0.043619344 -0.99904822 0) differs from the average normal (-0.043619388 -0.99904822 2.3351852e-21) by 1.8781821e-15
Either correct the patch or split it into planar parts
--> FOAM Warning : 
    From function virtual void Foam::wedgePolyPatch::calcGeometry(Foam::PstreamBuffers&)
    in file meshes/polyMesh/polyPatches/constraint/wedge/wedgePolyPatch.C at line 69
    Wedge patch 'LeftWedge' is not planar.
At local face at (0.011264018 -0.00049179765 0.01575) the normal (-0.043619344 -0.99904822 0) differs from the average normal (-0.043619388 -0.99904822 2.3351852e-21) by 1.8781821e-15
Either correct the patch or split it into planar parts
--> FOAM Warning : 
    From function virtual void Foam::wedgePolyPatch::calcGeometry(Foam::PstreamBuffers&)
    in file meshes/polyMesh/polyPatches/constraint/wedge/wedgePolyPatch.C at line 69
    Wedge patch 'LeftWedge' is not planar.
At local face at (0.011264018 -0.00049179765 0.01725) the normal (-0.043619344 -0.99904822 0) differs from the average normal (-0.043619388 -0.99904822 2.3351852e-21) by 1.8781821e-15
Either correct the patch or split it into planar parts
--> FOAM Warning : 
    From function virtual void Foam::wedgePolyPatch::calcGeometry(Foam::PstreamBuffers&)
    in file meshes/polyMesh/polyPatches/constraint/wedge/wedgePolyPatch.C at line 69
    Wedge patch 'LeftWedge' is not planar.
At local face at (0.011264018 -0.00049179765 0.01875) the normal (-0.043619344 -0.99904822 0) differs from the average normal (-0.043619388 -0.99904822 2.3351852e-21) by 1.8781821e-15
Either correct the patch or split it into planar parts
--> FOAM Warning : 
    From function virtual void Foam::wedgePolyPatch::calcGeometry(Foam::PstreamBuffers&)
    in file meshes/polyMesh/polyPatches/constraint/wedge/wedgePolyPatch.C at line 69
    Wedge patch 'LeftWedge' is not planar.
At local face at (0.011264018 -0.00049179765 0.02025) the normal (-0.043619344 -0.99904822 0) differs from the average normal (-0.043619388 -0.99904822 2.3351852e-21) by 1.8781821e-15
Either correct the patch or split it into planar parts
--> FOAM Warning : 
    From function virtual void Foam::wedgePolyPatch::calcGeometry(Foam::PstreamBuffers&)
    in file meshes/polyMesh/polyPatches/constraint/wedge/wedgePolyPatch.C at line 69
    Wedge patch 'LeftWedge' is not planar.
At local face at (0.011264018 -0.00049179765 0.02175) the normal (-0.043619344 -0.99904822 0) differs from the average normal (-0.043619388 -0.99904822 2.3351852e-21) by 1.8781821e-15
Either correct the patch or split it into planar parts
--> FOAM Warning : 
    From function virtual void Foam::wedgePolyPatch::calcGeometry(Foam::PstreamBuffers&)
    in file meshes/polyMesh/polyPatches/constraint/wedge/wedgePolyPatch.C at line 69
    Wedge patch 'LeftWedge' is not planar.
At local face at (0.011264018 -0.00049179765 0.02325) the normal (-0.043619344 -0.99904822 0) differs from the average normal (-0.043619388 -0.99904822 2.3351852e-21) by 1.8781821e-15
Either correct the patch or split it into planar parts
--> FOAM Warning : 
    From function virtual void Foam::wedgePolyPatch::calcGeometry(Foam::PstreamBuffers&)
    in file meshes/polyMesh/polyPatches/constraint/wedge/wedgePolyPatch.C at line 69
    Wedge patch 'LeftWedge' is not planar.
At local face at (0.011264018 -0.00049179765 0.02475) the normal (-0.043619344 -0.99904822 0) differs from the average normal (-0.043619388 -0.99904822 2.3351852e-21) by 1.8781821e-15
Either correct the patch or split it into planar parts
--> FOAM Warning : 
    From function virtual void Foam::wedgePolyPatch::calcGeometry(Foam::PstreamBuffers&)
    in file meshes/polyMesh/polyPatches/constraint/wedge/wedgePolyPatch.C at line 69
    Wedge patch 'LeftWedge' is not planar.
At local face at (0.011264018 -0.00049179765 0.02625) the normal (-0.043619344 -0.99904822 0) differs from the average normal (-0.043619388 -0.99904822 2.3351852e-21) by 1.8781821e-15
Either correct the patch or split it into planar parts
--> FOAM Warning : 
    From function virtual void Foam::wedgePolyPatch::calcGeometry(Foam::PstreamBuffers&)
    in file meshes/polyMesh/polyPatches/constraint/wedge/wedgePolyPatch.C at line 69
    Wedge patch 'LeftWedge' is not planar.
At local face at (0.011264018 -0.00049179765 0.02775) the normal (-0.043619344 -0.99904822 0) differs from the average normal (-0.043619388 -0.99904822 2.3351852e-21) by 1.8781821e-15
Either correct the patch or split it into planar parts
--> FOAM Warning : 
    From function virtual void Foam::wedgePolyPatch::calcGeometry(Foam::PstreamBuffers&)
    in file meshes/polyMesh/polyPatches/constraint/wedge/wedgePolyPatch.C at line 69
    Wedge patch 'LeftWedge' is not planar.
At local face at (0.011264018 -0.00049179765 0.02925) the normal (-0.043619344 -0.99904822 0) differs from the average normal (-0.043619388 -0.99904822 2.3351852e-21) by 1.8781821e-15
Either correct the patch or split it into planar parts
--> FOAM Warning : 
    From function virtual void Foam::wedgePolyPatch::calcGeometry(Foam::PstreamBuffers&)
    in file meshes/polyMesh/polyPatches/constraint/wedge/wedgePolyPatch.C at line 69
    Wedge patch 'LeftWedge' is not planar.
At local face at (0.011264018 -0.00049179765 0.03075) the normal (-0.043619344 -0.99904822 0) differs from the average normal (-0.043619388 -0.99904822 2.3351852e-21) by 1.8781821e-15
Either correct the patch or split it into planar parts
--> FOAM Warning : 
    From function virtual void Foam::wedgePolyPatch::calcGeometry(Foam::PstreamBuffers&)
    in file meshes/polyMesh/polyPatches/constraint/wedge/wedgePolyPatch.C at line 69
    Wedge patch 'LeftWedge' is not planar.
At local face at (0.011264018 -0.00049179765 0.03225) the normal (-0.043619344 -0.99904822 0) differs from the average normal (-0.043619388 -0.99904822 2.3351852e-21) by 1.8781821e-15
Either correct the patch or split it into planar parts
--> FOAM Warning : 
    From function virtual void Foam::wedgePolyPatch::calcGeometry(Foam::PstreamBuffers&)
    in file meshes/polyMesh/polyPatches/constraint/wedge/wedgePolyPatch.C at line 69
    Wedge patch 'LeftWedge' is not planar.
At local face at (0.011264018 -0.00049179765 0.03375) the normal (-0.043619344 -0.99904822 0) differs from the average normal (-0.043619388 -0.99904822 2.3351852e-21) by 1.8781821e-15
Either correct the patch or split it into planar parts
--> FOAM Warning : 
    From function virtual void Foam::wedgePolyPatch::calcGeometry(Foam::PstreamBuffers&)
    in file meshes/polyMesh/polyPatches/constraint/wedge/wedgePolyPatch.C at line 69
    Wedge patch 'LeftWedge' is not planar.
At local face at (0.011264018 -0.00049179765 0.03525) the normal (-0.043619344 -0.99904822 0) differs from the average normal (-0.043619388 -0.99904822 2.3351852e-21) by 1.8781821e-15
Either correct the patch or split it into planar parts
--> FOAM Warning : 
    From function virtual void Foam::wedgePolyPatch::calcGeometry(Foam::PstreamBuffers&)
    in file meshes/polyMesh/polyPatches/constraint/wedge/wedgePolyPatch.C at line 69
    Wedge patch 'LeftWedge' is not planar.
At local face at (0.011264018 -0.00049179765 0.03675) the normal (-0.043619344 -0.99904822 0) differs from the average normal (-0.043619388 -0.99904822 2.3351852e-21) by 1.8781821e-15
Either correct the patch or split it into planar parts
--> FOAM Warning : 
    From function virtual void Foam::wedgePolyPatch::calcGeometry(Foam::PstreamBuffers&)
    in file meshes/polyMesh/polyPatches/constraint/wedge/wedgePolyPatch.C at line 69
    Wedge patch 'LeftWedge' is not planar.
At local face at (0.011264018 -0.00049179765 0.03825) the normal (-0.043619344 -0.99904822 0) differs from the average normal (-0.043619388 -0.99904822 2.3351852e-21) by 1.8781821e-15
Either correct the patch or split it into planar parts
--> FOAM Warning : 
    From function virtual void Foam::wedgePolyPatch::calcGeometry(Foam::PstreamBuffers&)
    in file meshes/polyMesh/polyPatches/constraint/wedge/wedgePolyPatch.C at line 69
    Wedge patch 'LeftWedge' is not planar.
At local face at (0.011264018 -0.00049179765 0.03975) the normal (-0.043619344 -0.99904822 0) differs from the average normal (-0.043619388 -0.99904822 2.3351852e-21) by 1.8781821e-15
Either correct the patch or split it into planar parts
--> FOAM Warning : 
    From function virtual void Foam::wedgePolyPatch::calcGeometry(Foam::PstreamBuffers&)
    in file meshes/polyMesh/polyPatches/constraint/wedge/wedgePolyPatch.C at line 69
    Wedge patch 'LeftWedge' is not planar.
At local face at (0.011264018 -0.00049179765 0.04125) the normal (-0.043619344 -0.99904822 0) differs from the average normal (-0.043619388 -0.99904822 2.3351852e-21) by 1.8781821e-15
Either correct the patch or split it into planar parts
--> FOAM Warning : 
    From function virtual void Foam::wedgePolyPatch::calcGeometry(Foam::PstreamBuffers&)
    in file meshes/polyMesh/polyPatches/constraint/wedge/wedgePolyPatch.C at line 69
    Wedge patch 'LeftWedge' is not planar.
At local face at (0.011264018 -0.00049179765 0.04275) the normal (-0.043619344 -0.99904822 0) differs from the average normal (-0.043619388 -0.99904822 2.3351852e-21) by 1.8781821e-15
Either correct the patch or split it into planar parts
--> FOAM Warning : 
    From function virtual void Foam::wedgePolyPatch::calcGeometry(Foam::PstreamBuffers&)
    in file meshes/polyMesh/polyPatches/constraint/wedge/wedgePolyPatch.C at line 69
    Wedge patch 'LeftWedge' is not planar.
At local face at (0.011264018 -0.00049179765 0.04425) the normal (-0.043619344 -0.99904822 0) differs from the average normal (-0.043619388 -0.99904822 2.3351852e-21) by 1.8781821e-15
Either correct the patch or split it into planar parts
--> FOAM Warning : 
    From function virtual void Foam::wedgePolyPatch::calcGeometry(Foam::PstreamBuffers&)
    in file meshes/polyMesh/polyPatches/constraint/wedge/wedgePolyPatch.C at line 69
    Wedge patch 'LeftWedge' is not planar.
At local face at (0.011264018 -0.00049179765 0.04575) the normal (-0.043619344 -0.99904822 0) differs from the average normal (-0.043619388 -0.99904822 2.3351852e-21) by 1.8781821e-15
Either correct the patch or split it into planar parts
--> FOAM Warning : 
    From function virtual void Foam::wedgePolyPatch::calcGeometry(Foam::PstreamBuffers&)
    in file meshes/polyMesh/polyPatches/constraint/wedge/wedgePolyPatch.C at line 69
    Wedge patch 'LeftWedge' is not planar.
At local face at (0.011264018 -0.00049179765 0.04725) the normal (-0.043619344 -0.99904822 0) differs from the average normal (-0.043619388 -0.99904822 2.3351852e-21) by 1.8781821e-15
Either correct the patch or split it into planar parts
--> FOAM Warning : 
    From function virtual void Foam::wedgePolyPatch::calcGeometry(Foam::PstreamBuffers&)
    in file meshes/polyMesh/polyPatches/constraint/wedge/wedgePolyPatch.C at line 69
    Wedge patch 'LeftWedge' is not planar.
At local face at (0.011264018 -0.00049179765 0.04875) the normal (-0.043619344 -0.99904822 0) differs from the average normal (-0.043619388 -0.99904822 2.3351852e-21) by 1.8781821e-15
Either correct the patch or split it into planar parts
--> FOAM Warning : 
    From function virtual void Foam::wedgePolyPatch::calcGeometry(Foam::PstreamBuffers&)
    in file meshes/polyMesh/polyPatches/constraint/wedge/wedgePolyPatch.C at line 69
    Wedge patch 'LeftWedge' is not planar.
At local face at (0.011264018 -0.00049179765 0.05025) the normal (-0.043619344 -0.99904822 0) differs from the average normal (-0.043619388 -0.99904822 2.3351852e-21) by 1.8781821e-15
Either correct the patch or split it into planar parts
--> FOAM Warning : 
    From function virtual void Foam::wedgePolyPatch::calcGeometry(Foam::PstreamBuffers&)
    in file meshes/polyMesh/polyPatches/constraint/wedge/wedgePolyPatch.C at line 69
    Wedge patch 'LeftWedge' is not planar.
At local face at (0.011264018 -0.00049179765 0.05175) the normal (-0.043619344 -0.99904822 0) differs from the average normal (-0.043619388 -0.99904822 2.3351852e-21) by 1.8781821e-15
Either correct the patch or split it into planar parts
--> FOAM Warning : 
    From function virtual void Foam::wedgePolyPatch::calcGeometry(Foam::PstreamBuffers&)
    in file meshes/polyMesh/polyPatches/constraint/wedge/wedgePolyPatch.C at line 69
    Wedge patch 'LeftWedge' is not planar.
At local face at (0.011264018 -0.00049179765 0.05325) the normal (-0.043619344 -0.99904822 0) differs from the average normal (-0.043619388 -0.99904822 2.3351852e-21) by 1.8781821e-15
Either correct the patch or split it into planar parts
--> FOAM Warning : 
    From function virtual void Foam::wedgePolyPatch::calcGeometry(Foam::PstreamBuffers&)
    in file meshes/polyMesh/polyPatches/constraint/wedge/wedgePolyPatch.C at line 69
    Wedge patch 'LeftWedge' is not planar.
At local face at (0.011264018 -0.00049179765 0.05475) the normal (-0.043619344 -0.99904822 0) differs from the average normal (-0.043619388 -0.99904822 2.3351852e-21) by 1.8781821e-15
Either correct the patch or split it into planar parts
--> FOAM Warning : 
    From function virtual void Foam::wedgePolyPatch::calcGeometry(Foam::PstreamBuffers&)
    in file meshes/polyMesh/polyPatches/constraint/wedge/wedgePolyPatch.C at line 69
    Wedge patch 'LeftWedge' is not planar.
At local face at (0.011264018 -0.00049179765 0.05625) the normal (-0.043619344 -0.99904822 0) differs from the average normal (-0.043619388 -0.99904822 2.3351852e-21) by 1.8781821e-15
Either correct the patch or split it into planar parts
--> FOAM Warning : 
    From function virtual void Foam::wedgePolyPatch::calcGeometry(Foam::PstreamBuffers&)
    in file meshes/polyMesh/polyPatches/constraint/wedge/wedgePolyPatch.C at line 69
    Wedge patch 'LeftWedge' is not planar.
At local face at (0.011264018 -0.00049179765 0.05775) the normal (-0.043619344 -0.99904822 0) differs from the average normal (-0.043619388 -0.99904822 2.3351852e-21) by 1.8781821e-15
Either correct the patch or split it into planar parts
--> FOAM Warning : 
    From function virtual void Foam::wedgePolyPatch::calcGeometry(Foam::PstreamBuffers&)
    in file meshes/polyMesh/polyPatches/constraint/wedge/wedgePolyPatch.C at line 69
    Wedge patch 'LeftWedge' is not planar.
At local face at (0.011264018 -0.00049179765 0.05925) the normal (-0.043619344 -0.99904822 0) differs from the average normal (-0.043619388 -0.99904822 2.3351852e-21) by 1.8781821e-15
Either correct the patch or split it into planar parts
--> FOAM Warning : 
    From function virtual void Foam::wedgePolyPatch::calcGeometry(Foam::PstreamBuffers&)
    in file meshes/polyMesh/polyPatches/constraint/wedge/wedgePolyPatch.C at line 69
    Wedge patch 'LeftWedge' is not planar.
At local face at (0.011264018 -0.00049179765 0.06075) the normal (-0.043619344 -0.99904822 0) differs from the average normal (-0.043619388 -0.99904822 2.3351852e-21) by 1.8781821e-15
Either correct the patch or split it into planar parts
--> FOAM Warning : 
    From function virtual void Foam::wedgePolyPatch::calcGeometry(Foam::PstreamBuffers&)
    in file meshes/polyMesh/polyPatches/constraint/wedge/wedgePolyPatch.C at line 69
    Wedge patch 'LeftWedge' is not planar.
At local face at (0.011264018 -0.00049179765 0.06225) the normal (-0.043619344 -0.99904822 0) differs from the average normal (-0.043619388 -0.99904822 2.3351852e-21) by 1.8781821e-15
Either correct the patch or split it into planar parts
--> FOAM Warning : 
    From function virtual void Foam::wedgePolyPatch::calcGeometry(Foam::PstreamBuffers&)
    in file meshes/polyMesh/polyPatches/constraint/wedge/wedgePolyPatch.C at line 69
    Wedge patch 'LeftWedge' is not planar.
At local face at (0.011264018 -0.00049179765 0.06375) the normal (-0.043619344 -0.99904822 0) differs from the average normal (-0.043619388 -0.99904822 2.3351852e-21) by 1.8781821e-15
Either correct the patch or split it into planar parts
--> FOAM Warning : 
    From function virtual void Foam::wedgePolyPatch::calcGeometry(Foam::PstreamBuffers&)
    in file meshes/polyMesh/polyPatches/constraint/wedge/wedgePolyPatch.C at line 69
    Wedge patch 'LeftWedge' is not planar.
At local face at (0.011264018 -0.00049179765 0.06525) the normal (-0.043619344 -0.99904822 0) differs from the average normal (-0.043619388 -0.99904822 2.3351852e-21) by 1.8781821e-15
Either correct the patch or split it into planar parts
--> FOAM Warning : 
    From function virtual void Foam::wedgePolyPatch::calcGeometry(Foam::PstreamBuffers&)
    in file meshes/polyMesh/polyPatches/constraint/wedge/wedgePolyPatch.C at line 69
    Wedge patch 'LeftWedge' is not planar.
At local face at (0.011264018 -0.00049179765 0.06675) the normal (-0.043619344 -0.99904822 0) differs from the average normal (-0.043619388 -0.99904822 2.3351852e-21) by 1.8781821e-15
Either correct the patch or split it into planar parts
--> FOAM Warning : 
    From function virtual void Foam::wedgePolyPatch::calcGeometry(Foam::PstreamBuffers&)
    in file meshes/polyMesh/polyPatches/constraint/wedge/wedgePolyPatch.C at line 69
    Wedge patch 'LeftWedge' is not planar.
At local face at (0.011264018 -0.00049179765 0.06825) the normal (-0.043619344 -0.99904822 0) differs from the average normal (-0.043619388 -0.99904822 2.3351852e-21) by 1.8781821e-15
Either correct the patch or split it into planar parts
--> FOAM Warning : 
    From function virtual void Foam::wedgePolyPatch::calcGeometry(Foam::PstreamBuffers&)
    in file meshes/polyMesh/polyPatches/constraint/wedge/wedgePolyPatch.C at line 69
    Wedge patch 'LeftWedge' is not planar.
At local face at (0.011264018 -0.00049179765 0.06975) the normal (-0.043619344 -0.99904822 0) differs from the average normal (-0.043619388 -0.99904822 2.3351852e-21) by 1.8781821e-15
Either correct the patch or split it into planar parts
--> FOAM Warning : 
    From function virtual void Foam::wedgePolyPatch::calcGeometry(Foam::PstreamBuffers&)
    in file meshes/polyMesh/polyPatches/constraint/wedge/wedgePolyPatch.C at line 69
    Wedge patch 'LeftWedge' is not planar.
At local face at (0.011264018 -0.00049179765 0.07125) the normal (-0.043619344 -0.99904822 0) differs from the average normal (-0.043619388 -0.99904822 2.3351852e-21) by 1.8781821e-15
Either correct the patch or split it into planar parts
--> FOAM Warning : 
    From function virtual void Foam::wedgePolyPatch::calcGeometry(Foam::PstreamBuffers&)
    in file meshes/polyMesh/polyPatches/constraint/wedge/wedgePolyPatch.C at line 69
    Wedge patch 'LeftWedge' is not planar.
At local face at (0.011264018 -0.00049179765 0.07275) the normal (-0.043619344 -0.99904822 0) differs from the average normal (-0.043619388 -0.99904822 2.3351852e-21) by 1.8781821e-15
Either correct the patch or split it into planar parts
--> FOAM Warning : 
    From function virtual void Foam::wedgePolyPatch::calcGeometry(Foam::PstreamBuffers&)
    in file meshes/polyMesh/polyPatches/constraint/wedge/wedgePolyPatch.C at line 69
    Wedge patch 'LeftWedge' is not planar.
At local face at (0.011264018 -0.00049179765 0.07425) the normal (-0.043619344 -0.99904822 0) differs from the average normal (-0.043619388 -0.99904822 2.3351852e-21) by 1.8781821e-15
Either correct the patch or split it into planar parts
--> FOAM Warning : 
    From function virtual void Foam::wedgePolyPatch::calcGeometry(Foam::PstreamBuffers&)
    in file meshes/polyMesh/polyPatches/constraint/wedge/wedgePolyPatch.C at line 69
    Wedge patch 'LeftWedge' is not planar.
At local face at (0.011264018 -0.00049179765 0.07575) the normal (-0.043619344 -0.99904822 0) differs from the average normal (-0.043619388 -0.99904822 2.3351852e-21) by 1.8781821e-15
Either correct the patch or split it into planar parts
--> FOAM Warning : 
    From function virtual void Foam::wedgePolyPatch::calcGeometry(Foam::PstreamBuffers&)
    in file meshes/polyMesh/polyPatches/constraint/wedge/wedgePolyPatch.C at line 69
    Wedge patch 'LeftWedge' is not planar.
At local face at (0.011264018 -0.00049179765 0.07725) the normal (-0.043619344 -0.99904822 0) differs from the average normal (-0.043619388 -0.99904822 2.3351852e-21) by 1.8781821e-15
Either correct the patch or split it into planar parts
--> FOAM Warning : 
    From function virtual void Foam::wedgePolyPatch::calcGeometry(Foam::PstreamBuffers&)
    in file meshes/polyMesh/polyPatches/constraint/wedge/wedgePolyPatch.C at line 69
    Wedge patch 'LeftWedge' is not planar.
At local face at (0.011264018 -0.00049179765 0.07875) the normal (-0.043619344 -0.99904822 0) differs from the average normal (-0.043619388 -0.99904822 2.3351852e-21) by 1.8781821e-15
Either correct the patch or split it into planar parts
--> FOAM Warning : 
    From function virtual void Foam::wedgePolyPatch::calcGeometry(Foam::PstreamBuffers&)
    in file meshes/polyMesh/polyPatches/constraint/wedge/wedgePolyPatch.C at line 69
    Wedge patch 'LeftWedge' is not planar.
At local face at (0.011264018 -0.00049179765 0.08025) the normal (-0.043619344 -0.99904822 0) differs from the average normal (-0.043619388 -0.99904822 2.3351852e-21) by 1.8781821e-15
Either correct the patch or split it into planar parts
--> FOAM Warning : 
    From function virtual void Foam::wedgePolyPatch::calcGeometry(Foam::PstreamBuffers&)
    in file meshes/polyMesh/polyPatches/constraint/wedge/wedgePolyPatch.C at line 69
    Wedge patch 'LeftWedge' is not planar.
At local face at (0.011264018 -0.00049179765 0.08175) the normal (-0.043619344 -0.99904822 0) differs from the average normal (-0.043619388 -0.99904822 2.3351852e-21) by 1.8781821e-15
Either correct the patch or split it into planar parts
--> FOAM Warning : 
    From function virtual void Foam::wedgePolyPatch::calcGeometry(Foam::PstreamBuffers&)
    in file meshes/polyMesh/polyPatches/constraint/wedge/wedgePolyPatch.C at line 69
    Wedge patch 'LeftWedge' is not planar.
At local face at (0.011264018 -0.00049179765 0.08325) the normal (-0.043619344 -0.99904822 0) differs from the average normal (-0.043619388 -0.99904822 2.3351852e-21) by 1.8781821e-15
Either correct the patch or split it into planar parts
--> FOAM Warning : 
    From function virtual void Foam::wedgePolyPatch::calcGeometry(Foam::PstreamBuffers&)
    in file meshes/polyMesh/polyPatches/constraint/wedge/wedgePolyPatch.C at line 69
    Wedge patch 'LeftWedge' is not planar.
At local face at (0.011264018 -0.00049179765 0.08475) the normal (-0.043619344 -0.99904822 0) differs from the average normal (-0.043619388 -0.99904822 2.3351852e-21) by 1.8781821e-15
Either correct the patch or split it into planar parts
--> FOAM Warning : 
    From function virtual void Foam::wedgePolyPatch::calcGeometry(Foam::PstreamBuffers&)
    in file meshes/polyMesh/polyPatches/constraint/wedge/wedgePolyPatch.C at line 69
    Wedge patch 'LeftWedge' is not planar.
At local face at (0.011264018 -0.00049179765 0.08625) the normal (-0.043619344 -0.99904822 0) differs from the average normal (-0.043619388 -0.99904822 2.3351852e-21) by 1.8781821e-15
Either correct the patch or split it into planar parts
--> FOAM Warning : 
    From function virtual void Foam::wedgePolyPatch::calcGeometry(Foam::PstreamBuffers&)
    in file meshes/polyMesh/polyPatches/constraint/wedge/wedgePolyPatch.C at line 69
    Wedge patch 'LeftWedge' is not planar.
At local face at (0.011264018 -0.00049179765 0.08775) the normal (-0.043619344 -0.99904822 0) differs from the average normal (-0.043619388 -0.99904822 2.3351852e-21) by 1.8781821e-15
Either correct the patch or split it into planar parts
--> FOAM Warning : 
    From function virtual void Foam::wedgePolyPatch::calcGeometry(Foam::PstreamBuffers&)
    in file meshes/polyMesh/polyPatches/constraint/wedge/wedgePolyPatch.C at line 69
    Wedge patch 'LeftWedge' is not planar.
At local face at (0.011264018 -0.00049179765 0.08925) the normal (-0.043619344 -0.99904822 0) differs from the average normal (-0.043619388 -0.99904822 2.3351852e-21) by 1.8781821e-15
Either correct the patch or split it into planar parts
--> FOAM Warning : 
    From function virtual void Foam::wedgePolyPatch::calcGeometry(Foam::PstreamBuffers&)
    in file meshes/polyMesh/polyPatches/constraint/wedge/wedgePolyPatch.C at line 69
    Wedge patch 'LeftWedge' is not planar.
At local face at (0.011264018 -0.00049179765 0.09075) the normal (-0.043619344 -0.99904822 0) differs from the average normal (-0.043619388 -0.99904822 2.3351852e-21) by 1.8781821e-15
Either correct the patch or split it into planar parts
--> FOAM Warning : 
    From function virtual void Foam::wedgePolyPatch::calcGeometry(Foam::PstreamBuffers&)
    in file meshes/polyMesh/polyPatches/constraint/wedge/wedgePolyPatch.C at line 69
    Wedge patch 'LeftWedge' is not planar.
At local face at (0.011264018 -0.00049179765 0.09225) the normal (-0.043619344 -0.99904822 0) differs from the average normal (-0.043619388 -0.99904822 2.3351852e-21) by 1.8781821e-15
Either correct the patch or split it into planar parts
--> FOAM Warning : 
    From function virtual void Foam::wedgePolyPatch::calcGeometry(Foam::PstreamBuffers&)
    in file meshes/polyMesh/polyPatches/constraint/wedge/wedgePolyPatch.C at line 69
    Wedge patch 'LeftWedge' is not planar.
At local face at (0.011264018 -0.00049179765 0.09375) the normal (-0.043619344 -0.99904822 0) differs from the average normal (-0.043619388 -0.99904822 2.3351852e-21) by 1.8781821e-15
Either correct the patch or split it into planar parts
--> FOAM Warning : 
[...]
EnergyOutflow : -0.015128509 [W]
rho max/avg/min : 1.2008604 1.1620424 1.1248292
T   max/avg/min : 313.7543 303.86713 293.88726
P   max/avg/min : 101324.99 101324.14 101323.29
Prg max/avg/min : 101325.05 101325 101324.95
U   max/avg/min : 0.012873978 -0.001971571 -0.021199212
Prg max-min : 0.10437722
 
Iteration Number = 2754

DILUPBiCG:  Solving for Ux, Initial residual = 0.016265126, Final residual = 4.9579411e-07, No Iterations 2
DILUPBiCG:  Solving for Uy, Initial residual = 0.00015320244, Final residual = 6.4649525e-07, No Iterations 1
DILUPBiCG:  Solving for Uz, Initial residual = 0.00013129447, Final residual = 8.876714e-07, No Iterations 1
DILUPBiCG:  Solving for h, Initial residual = 0.00015453135, Final residual = 5.7424985e-07, No Iterations 2
GAMG:  Solving for p_rgh, Initial residual = 0.0045480211, Final residual = 2.7871791e-06, No Iterations 5
time step continuity errors : sum local = 1.418212e-05, global = -7.7269872e-06, cumulative = -0.0001729958
ExecutionTime = 218.31 s  ClockTime = 219 s
Inflow      : -5.1205152e-08 [kg/s]
Outflow     : -5.1211084e-08 [kg/s]
EnergyInflow  : -0.015129187 [W]
EnergyOutflow : -0.01513094 [W]
rho max/avg/min : 1.2008601 1.1620315 1.1248129
T   max/avg/min : 313.75885 303.87001 293.88733
P   max/avg/min : 101324.99 101324.14 101323.29
Prg max/avg/min : 101325.05 101325 101324.95
U   max/avg/min : 0.012876914 -0.0019719224 -0.021203007
Prg max-min : 0.10439222
 
Iteration Number = 2755

DILUPBiCG:  Solving for Ux, Initial residual = 0.016079427, Final residual = 4.5622679e-07, No Iterations 2
DILUPBiCG:  Solving for Uy, Initial residual = 0.0001624029, Final residual = 7.1293309e-07, No Iterations 1
DILUPBiCG:  Solving for Uz, Initial residual = 0.00013103746, Final residual = 7.8469806e-07, No Iterations 1
DILUPBiCG:  Solving for h, Initial residual = 0.00015450665, Final residual = 3.7361994e-07, No Iterations 2
GAMG:  Solving for p_rgh, Initial residual = 0.0042904849, Final residual = 2.8466431e-06, No Iterations 5
time step continuity errors : sum local = 1.4464396e-05, global = 7.6903267e-06, cumulative = -0.00016530547
ExecutionTime = 218.37 s  ClockTime = 219 s
Inflow      : -5.1225204e-08 [kg/s]
Outflow     : -5.12193e-08 [kg/s]
EnergyInflow  : -0.015135111 [W]
EnergyOutflow : -0.015133367 [W]
rho max/avg/min : 1.2008598 1.1620207 1.1247965
T   max/avg/min : 313.76342 303.8729 293.8874
P   max/avg/min : 101324.99 101324.14 101323.29
Prg max/avg/min : 101325.05 101325 101324.95
U   max/avg/min : 0.01287985 -0.0019722455 -0.021206794
Prg max-min : 0.10441782
 
Iteration Number = 2756

DILUPBiCG:  Solving for Ux, Initial residual = 0.015980022, Final residual = 4.6298458e-07, No Iterations 2
DILUPBiCG:  Solving for Uy, Initial residual = 0.00016764286, Final residual = 7.5094934e-07, No Iterations 1
DILUPBiCG:  Solving for Uz, Initial residual = 0.00013108353, Final residual = 8.854038e-07, No Iterations 1
DILUPBiCG:  Solving for h, Initial residual = 0.00015447261, Final residual = 5.7444972e-07, No Iterations 2
GAMG:  Solving for p_rgh, Initial residual = 0.0042096037, Final residual = 2.7874136e-06, No Iterations 5
time step continuity errors : sum local = 1.4206865e-05, global = -7.7264776e-06, cumulative = -0.00017303195
ExecutionTime = 218.44 s  ClockTime = 219 s
Inflow      : -5.1221587e-08 [kg/s]
Outflow     : -5.1227519e-08 [kg/s]
EnergyInflow  : -0.015134043 [W]
EnergyOutflow : -0.015135795 [W]
rho max/avg/min : 1.2008595 1.1620099 1.1247803
T   max/avg/min : 313.76797 303.87578 293.88747
P   max/avg/min : 101324.99 101324.14 101323.29
Prg max/avg/min : 101325.05 101325 101324.95
U   max/avg/min : 0.012882784 -0.0019725954 -0.021210584
Prg max-min : 0.10443297
 
Iteration Number = 2757

DILUPBiCG:  Solving for Ux, Initial residual = 0.015967229, Final residual = 4.3476922e-07, No Iterations 2
DILUPBiCG:  Solving for Uy, Initial residual = 0.00016448073, Final residual = 7.093487e-07, No Iterations 1
DILUPBiCG:  Solving for Uz, Initial residual = 0.0001308776, Final residual = 7.8475232e-07, No Iterations 1
DILUPBiCG:  Solving for h, Initial residual = 0.00015444794, Final residual = 3.7400027e-07, No Iterations 2
GAMG:  Solving for p_rgh, Initial residual = 0.0040951003, Final residual = 2.8473006e-06, No Iterations 5
time step continuity errors : sum local = 1.4478186e-05, global = 7.6877141e-06, cumulative = -0.00016534423
ExecutionTime = 218.49 s  ClockTime = 219 s
Inflow      : -5.1241628e-08 [kg/s]
Outflow     : -5.1235725e-08 [kg/s]
EnergyInflow  : -0.015139964 [W]
EnergyOutflow : -0.01513822 [W]
rho max/avg/min : 1.2008593 1.161999 1.1247639
T   max/avg/min : 313.77254 303.87867 293.88754
P   max/avg/min : 101324.99 101324.14 101323.29
Prg max/avg/min : 101325.05 101325 101324.95
U   max/avg/min : 0.012885717 -0.0019729174 -0.02121437
Prg max-min : 0.10445843
 
Iteration Number = 2758

DILUPBiCG:  Solving for Ux, Initial residual = 0.016024011, Final residual = 4.797606e-07, No Iterations 2
DILUPBiCG:  Solving for Uy, Initial residual = 0.00016101081, Final residual = 6.9947617e-07, No Iterations 1
DILUPBiCG:  Solving for Uz, Initial residual = 0.00013094528, Final residual = 8.8416161e-07, No Iterations 1
DILUPBiCG:  Solving for h, Initial residual = 0.00015441395, Final residual = 5.7466464e-07, No Iterations 2
GAMG:  Solving for p_rgh, Initial residual = 0.0043513493, Final residual = 2.8053647e-06, No Iterations 5
time step continuity errors : sum local = 1.4285974e-05, global = -7.7615154e-06, cumulative = -0.00017310575
ExecutionTime = 218.56 s  ClockTime = 219 s
Inflow      : -5.1237979e-08 [kg/s]
Outflow     : -5.1243938e-08 [kg/s]
EnergyInflow  : -0.015138886 [W]
EnergyOutflow : -0.015140647 [W]
rho max/avg/min : 1.200859 1.1619882 1.1247476
T   max/avg/min : 313.77709 303.88155 293.8876
P   max/avg/min : 101324.99 101324.14 101323.29
Prg max/avg/min : 101325.05 101325 101324.95
U   max/avg/min : 0.012888649 -0.0019732685 -0.021218154
Prg max-min : 0.10447365
 
Iteration Number = 2759

DILUPBiCG:  Solving for Ux, Initial residual = 0.015968384, Final residual = 4.4017288e-07, No Iterations 2
DILUPBiCG:  Solving for Uy, Initial residual = 0.00015400313, Final residual = 6.6763144e-07, No Iterations 1
DILUPBiCG:  Solving for Uz, Initial residual = 0.00013095513, Final residual = 7.8749941e-07, No Iterations 1
DILUPBiCG:  Solving for h, Initial residual = 0.00015438932, Final residual = 3.7386473e-07, No Iterations 2
GAMG:  Solving for p_rgh, Initial residual = 0.0041418312, Final residual = 2.8574562e-06, No Iterations 5
time step continuity errors : sum local = 1.4539046e-05, global = 7.7982943e-06, cumulative = -0.00016530745
ExecutionTime = 218.62 s  ClockTime = 219 s
Inflow      : -5.1258124e-08 [kg/s]
Outflow     : -5.1252137e-08 [kg/s]
EnergyInflow  : -0.015144838 [W]
EnergyOutflow : -0.015143069 [W]
rho max/avg/min : 1.2008587 1.1619773 1.1247313
T   max/avg/min : 313.78165 303.88444 293.88767
P   max/avg/min : 101324.99 101324.14 101323.29
Prg max/avg/min : 101325.05 101325 101324.95
U   max/avg/min : 0.012891579 -0.0019735921 -0.021221938
Prg max-min : 0.10449902
 
Iteration Number = 2760

DILUPBiCG:  Solving for Ux, Initial residual = 0.016020181, Final residual = 4.5913768e-07, No Iterations 2
DILUPBiCG:  Solving for Uy, Initial residual = 0.00015761583, Final residual = 6.8484752e-07, No Iterations 1
DILUPBiCG:  Solving for Uz, Initial residual = 0.00013090738, Final residual = 8.858986e-07, No Iterations 1
DILUPBiCG:  Solving for h, Initial residual = 0.0001543554, Final residual = 5.759529e-07, No Iterations 2
GAMG:  Solving for p_rgh, Initial residual = 0.0042258173, Final residual = 2.8023471e-06, No Iterations 5
time step continuity errors : sum local = 1.4292986e-05, global = -7.769538e-06, cumulative = -0.00017307699
ExecutionTime = 218.68 s  ClockTime = 219 s
Inflow      : -5.1254377e-08 [kg/s]
Outflow     : -5.1260342e-08 [kg/s]
EnergyInflow  : -0.015143731 [W]
EnergyOutflow : -0.015145493 [W]
rho max/avg/min : 1.2008584 1.1619665 1.124715
T   max/avg/min : 313.7862 303.88732 293.88774
P   max/avg/min : 101324.99 101324.14 101323.29
Prg max/avg/min : 101325.05 101325 101324.95
U   max/avg/min : 0.012894508 -0.0019739407 -0.021225718
Prg max-min : 0.10451429
 
Iteration Number = 2761

DILUPBiCG:  Solving for Ux, Initial residual = 0.016183463, Final residual = 4.6240809e-07, No Iterations 2
DILUPBiCG:  Solving for Uy, Initial residual = 0.00016611642, Final residual = 7.4092926e-07, No Iterations 1
DILUPBiCG:  Solving for Uz, Initial residual = 0.00013058277, Final residual = 7.8410661e-07, No Iterations 1
DILUPBiCG:  Solving for h, Initial residual = 0.0001543308, Final residual = 3.7442985e-07, No Iterations 2
GAMG:  Solving for p_rgh, Initial residual = 0.0043791143, Final residual = 2.8351316e-06, No Iterations 5
time step continuity errors : sum local = 1.4417302e-05, global = 7.7438841e-06, cumulative = -0.00016533311
ExecutionTime = 218.74 s  ClockTime = 219 s
Inflow      : -5.1274477e-08 [kg/s]
Outflow     : -5.1268532e-08 [kg/s]
EnergyInflow  : -0.01514967 [W]
EnergyOutflow : -0.015147913 [W]
rho max/avg/min : 1.2008581 1.1619557 1.1246987
T   max/avg/min : 313.79076 303.89021 293.88781
P   max/avg/min : 101324.99 101324.14 101323.29
Prg max/avg/min : 101325.05 101325 101324.95
U   max/avg/min : 0.012897435 -0.0019742642 -0.021229497
Prg max-min : 0.10453958
 
Iteration Number = 2762

DILUPBiCG:  Solving for Ux, Initial residual = 0.016315299, Final residual = 5.1807081e-07, No Iterations 2
DILUPBiCG:  Solving for Uy, Initial residual = 0.0001714605, Final residual = 7.6981205e-07, No Iterations 1
DILUPBiCG:  Solving for Uz, Initial residual = 0.00013100012, Final residual = 8.8566245e-07, No Iterations 1
DILUPBiCG:  Solving for h, Initial residual = 0.00015429692, Final residual = 5.7513467e-07, No Iterations 2
GAMG:  Solving for p_rgh, Initial residual = 0.004814541, Final residual = 2.8131335e-06, No Iterations 5
time step continuity errors : sum local = 1.4334237e-05, global = -7.7551995e-06, cumulative = -0.00017308831
ExecutionTime = 218.8 s  ClockTime = 219 s
Inflow      : -5.1270774e-08 [kg/s]
Outflow     : -5.1276728e-08 [kg/s]
EnergyInflow  : -0.015148576 [W]
EnergyOutflow : -0.015150335 [W]
rho max/avg/min : 1.2008579 1.1619448 1.1246824
T   max/avg/min : 313.7953 303.89308 293.88788
P   max/avg/min : 101324.99 101324.14 101323.29
Prg max/avg/min : 101325.05 101325 101324.95
U   max/avg/min : 0.012900363 -0.0019746119 -0.021233273
Prg max-min : 0.10455491
 
Iteration Number = 2763

DILUPBiCG:  Solving for Ux, Initial residual = 0.016263087, Final residual = 4.7694644e-07, No Iterations 2
DILUPBiCG:  Solving for Uy, Initial residual = 0.00016103539, Final residual = 7.0204365e-07, No Iterations 1
DILUPBiCG:  Solving for Uz, Initial residual = 0.00013068478, Final residual = 7.8567745e-07, No Iterations 1
DILUPBiCG:  Solving for h, Initial residual = 0.00015427237, Final residual = 3.7433252e-07, No Iterations 2
GAMG:  Solving for p_rgh, Initial residual = 0.0045713406, Final residual = 2.8800247e-06, No Iterations 5
time step continuity errors : sum local = 1.4659736e-05, global = 7.7825279e-06, cumulative = -0.00016530578
ExecutionTime = 218.86 s  ClockTime = 219 s
Inflow      : -5.1290885e-08 [kg/s]
Outflow     : -5.128491e-08 [kg/s]
EnergyInflow  : -0.015154518 [W]
EnergyOutflow : -0.015152752 [W]
rho max/avg/min : 1.2008576 1.161934 1.1246661
T   max/avg/min : 313.79987 303.89598 293.88795
P   max/avg/min : 101324.99 101324.14 101323.29
Prg max/avg/min : 101325.05 101325 101324.95
U   max/avg/min : 0.012903287 -0.0019749337 -0.021237049
Prg max-min : 0.10458011
 
Iteration Number = 2764

DILUPBiCG:  Solving for Ux, Initial residual = 0.016377684, Final residual = 5.1041419e-07, No Iterations 2
DILUPBiCG:  Solving for Uy, Initial residual = 0.00015331896, Final residual = 6.6093787e-07, No Iterations 1
DILUPBiCG:  Solving for Uz, Initial residual = 0.00013112932, Final residual = 8.8705255e-07, No Iterations 1
DILUPBiCG:  Solving for h, Initial residual = 0.00015423853, Final residual = 5.7578783e-07, No Iterations 2
GAMG:  Solving for p_rgh, Initial residual = 0.0046829619, Final residual = 2.8133916e-06, No Iterations 5
time step continuity errors : sum local = 1.4350231e-05, global = -7.8696076e-06, cumulative = -0.00017317539
ExecutionTime = 218.92 s  ClockTime = 219 s
Inflow      : -5.1287056e-08 [kg/s]
Outflow     : -5.1293098e-08 [kg/s]
EnergyInflow  : -0.015153387 [W]
EnergyOutflow : -0.015155172 [W]
rho max/avg/min : 1.2008573 1.1619232 1.1246498
T   max/avg/min : 313.8044 303.89885 293.88802
P   max/avg/min : 101324.99 101324.14 101323.29
Prg max/avg/min : 101325.05 101325 101324.95
U   max/avg/min : 0.012906212 -0.0019752804 -0.021240823
Prg max-min : 0.10459552
 
Iteration Number = 2765

DILUPBiCG:  Solving for Ux, Initial residual = 0.016093541, Final residual = 4.568392e-07, No Iterations 2
DILUPBiCG:  Solving for Uy, Initial residual = 0.00016434017, Final residual = 7.4766839e-07, No Iterations 1
DILUPBiCG:  Solving for Uz, Initial residual = 0.00013033432, Final residual = 7.8453411e-07, No Iterations 1
DILUPBiCG:  Solving for h, Initial residual = 0.00015421402, Final residual = 3.7465143e-07, No Iterations 2
GAMG:  Solving for p_rgh, Initial residual = 0.0042709878, Final residual = 2.8964723e-06, No Iterations 5
time step continuity errors : sum local = 1.4741327e-05, global = 7.7689797e-06, cumulative = -0.00016540641
ExecutionTime = 218.97 s  ClockTime = 219 s
Inflow      : -5.1307237e-08 [kg/s]
Outflow     : -5.1301272e-08 [kg/s]
EnergyInflow  : -0.015159349 [W]
EnergyOutflow : -0.015157587 [W]
rho max/avg/min : 1.200857 1.1619123 1.1246335
T   max/avg/min : 313.80897 303.90174 293.88808
P   max/avg/min : 101324.99 101324.14 101323.29
Prg max/avg/min : 101325.05 101325 101324.95
U   max/avg/min : 0.012909134 -0.0019756037 -0.021244589
Prg max-min : 0.10462055
 
Iteration Number = 2766

DILUPBiCG:  Solving for Ux, Initial residual = 0.015996413, Final residual = 4.5950548e-07, No Iterations 2
DILUPBiCG:  Solving for Uy, Initial residual = 0.00015411967, Final residual = 7.0080875e-07, No Iterations 1
DILUPBiCG:  Solving for Uz, Initial residual = 0.00013098536, Final residual = 8.8513064e-07, No Iterations 1
DILUPBiCG:  Solving for h, Initial residual = 0.00015418024, Final residual = 5.7687766e-07, No Iterations 2
GAMG:  Solving for p_rgh, Initial residual = 0.0043060776, Final residual = 2.8182974e-06, No Iterations 5
time step continuity errors : sum local = 1.4384096e-05, global = -7.7877255e-06, cumulative = -0.00017319413
ExecutionTime = 219.04 s  ClockTime = 220 s
Inflow      : -5.1303471e-08 [kg/s]
Outflow     : -5.130945e-08 [kg/s]
EnergyInflow  : -0.015158236 [W]
EnergyOutflow : -0.015160003 [W]
rho max/avg/min : 1.2008567 1.1619015 1.1246172
T   max/avg/min : 313.8135 303.90461 293.88815
P   max/avg/min : 101324.99 101324.14 101323.29
Prg max/avg/min : 101325.05 101325 101324.95
U   max/avg/min : 0.012912056 -0.0019759555 -0.021248366
Prg max-min : 0.10463616
 
Iteration Number = 2767

DILUPBiCG:  Solving for Ux, Initial residual = 0.016036995, Final residual = 4.5523312e-07, No Iterations 2
DILUPBiCG:  Solving for Uy, Initial residual = 0.00015735307, Final residual = 6.9620347e-07, No Iterations 1
DILUPBiCG:  Solving for Uz, Initial residual = 0.00013007486, Final residual = 7.8244967e-07, No Iterations 1
DILUPBiCG:  Solving for h, Initial residual = 0.00015415577, Final residual = 3.7476274e-07, No Iterations 2
GAMG:  Solving for p_rgh, Initial residual = 0.0042773533, Final residual = 2.8506915e-06, No Iterations 5
time step continuity errors : sum local = 1.4524894e-05, global = 7.728507e-06, cumulative = -0.00016546563
ExecutionTime = 219.1 s  ClockTime = 220 s
Inflow      : -5.1323551e-08 [kg/s]
Outflow     : -5.1317618e-08 [kg/s]
EnergyInflow  : -0.015164169 [W]
EnergyOutflow : -0.015162416 [W]
rho max/avg/min : 1.2008565 1.1618907 1.1246008
T   max/avg/min : 313.81806 303.9075 293.88822
P   max/avg/min : 101324.99 101324.14 101323.29
Prg max/avg/min : 101325.05 101325 101324.95
U   max/avg/min : 0.012914973 -0.0019762793 -0.021252132
Prg max-min : 0.10466101
 
Iteration Number = 2768

DILUPBiCG:  Solving for Ux, Initial residual = 0.016053259, Final residual = 4.7836302e-07, No Iterations 2
DILUPBiCG:  Solving for Uy, Initial residual = 0.00016749746, Final residual = 7.4425703e-07, No Iterations 1
DILUPBiCG:  Solving for Uz, Initial residual = 0.00013092609, Final residual = 8.8256212e-07, No Iterations 1
DILUPBiCG:  Solving for h, Initial residual = 0.00015412203, Final residual = 5.7621642e-07, No Iterations 2
GAMG:  Solving for p_rgh, Initial residual = 0.0043530904, Final residual = 2.7879014e-06, No Iterations 5
time step continuity errors : sum local = 1.4223921e-05, global = -7.7623927e-06, cumulative = -0.00017322802
ExecutionTime = 219.17 s  ClockTime = 220 s
Inflow      : -5.1319829e-08 [kg/s]
Outflow     : -5.1325789e-08 [kg/s]
EnergyInflow  : -0.01516307 [W]
EnergyOutflow : -0.01516483 [W]
rho max/avg/min : 1.2008562 1.1618799 1.1245846
T   max/avg/min : 313.82259 303.91037 293.88829
P   max/avg/min : 101324.99 101324.14 101323.29
Prg max/avg/min : 101325.05 101325 101324.95
U   max/avg/min : 0.012917894 -0.0019766282 -0.021255902
Prg max-min : 0.10467666
 
Iteration Number = 2769

DILUPBiCG:  Solving for Ux, Initial residual = 0.016122325, Final residual = 4.6943075e-07, No Iterations 2
DILUPBiCG:  Solving for Uy, Initial residual = 0.00015844162, Final residual = 6.6280122e-07, No Iterations 1
DILUPBiCG:  Solving for Uz, Initial residual = 0.00012968178, Final residual = 7.7779738e-07, No Iterations 1
DILUPBiCG:  Solving for h, Initial residual = 0.00015409761, Final residual = 3.7465166e-07, No Iterations 2
GAMG:  Solving for p_rgh, Initial residual = 0.0043529649, Final residual = 2.8580696e-06, No Iterations 5
time step continuity errors : sum local = 1.4551785e-05, global = 7.7419555e-06, cumulative = -0.00016548606
ExecutionTime = 219.23 s  ClockTime = 220 s
Inflow      : -5.1339894e-08 [kg/s]
Outflow     : -5.133395e-08 [kg/s]
EnergyInflow  : -0.015168998 [W]
EnergyOutflow : -0.015167242 [W]
rho max/avg/min : 1.2008559 1.161869 1.1245682
T   max/avg/min : 313.82715 303.91326 293.88836
P   max/avg/min : 101324.99 101324.14 101323.29
Prg max/avg/min : 101325.05 101325 101324.95
U   max/avg/min : 0.012920808 -0.001976949 -0.021259663
Prg max-min : 0.1047015
 
Iteration Number = 2770

DILUPBiCG:  Solving for Ux, Initial residual = 0.016357465, Final residual = 5.0717124e-07, No Iterations 2
DILUPBiCG:  Solving for Uy, Initial residual = 0.00016467619, Final residual = 7.7052966e-07, No Iterations 1
DILUPBiCG:  Solving for Uz, Initial residual = 0.00013075467, Final residual = 8.8180344e-07, No Iterations 1
DILUPBiCG:  Solving for h, Initial residual = 0.00015406391, Final residual = 5.7680697e-07, No Iterations 2
GAMG:  Solving for p_rgh, Initial residual = 0.004750057, Final residual = 2.8172446e-06, No Iterations 5
time step continuity errors : sum local = 1.4388375e-05, global = -7.7808544e-06, cumulative = -0.00017326692
ExecutionTime = 219.29 s  ClockTime = 220 s
Inflow      : -5.133614e-08 [kg/s]
Outflow     : -5.1342113e-08 [kg/s]
EnergyInflow  : -0.015167889 [W]
EnergyOutflow : -0.015169654 [W]
rho max/avg/min : 1.2008556 1.1618582 1.1245519
T   max/avg/min : 313.83168 303.91613 293.88842
P   max/avg/min : 101324.99 101324.14 101323.29
Prg max/avg/min : 101325.05 101325 101324.95
U   max/avg/min : 0.012923729 -0.0019772976 -0.021263424
Prg max-min : 0.10471704
 
Iteration Number = 2771

DILUPBiCG:  Solving for Ux, Initial residual = 0.016345049, Final residual = 5.0197626e-07, No Iterations 2
DILUPBiCG:  Solving for Uy, Initial residual = 0.00016008841, Final residual = 7.0431616e-07, No Iterations 1
DILUPBiCG:  Solving for Uz, Initial residual = 0.0001294854, Final residual = 7.7717368e-07, No Iterations 1
DILUPBiCG:  Solving for h, Initial residual = 0.00015403954, Final residual = 3.750298e-07, No Iterations 2
