/*---------------------------------------------------------------------------*\
| =========                 |                                                 |
| \\      /  F ield         | OpenFOAM: The Open Source CFD Toolbox           |
|  \\    /   O peration     | Version:  4.0                                   |
|   \\  /    A nd           | Web:      www.OpenFOAM.org                      |
|    \\/     M anipulation  |                                                 |
\*---------------------------------------------------------------------------*/
Build  : 4.0-665f1db4c1f1
Exec   : pupoBuoyantSimpleFoam
Date   : Sep 10 2016
Time   : 12:01:28
Host   : "SC500"
PID    : 12589
Case   : /home/pedro/Documents/ThesisProject/OpenFoam/validation1rod/bug
nProcs : 1
sigFpe : Enabling floating point exception trapping (FOAM_SIGFPE).
fileModificationChecking : Monitoring run-time modified files using timeStampMaster
allowSystemOperations : Allowing user-supplied system call operations

// * * * * * * * * * * * * * * * * * * * * * * * * * * * * * * * * * * * * * //
Create time

Create mesh for time = 3000

--> FOAM Warning : 
    From function virtual void Foam::wedgePolyPatch::calcGeometry(Foam::PstreamBuffers&)
    in file meshes/polyMesh/polyPatches/constraint/wedge/wedgePolyPatch.C at line 69
    Wedge patch 'LeftWedge' is not planar.
At local face at (0.011257869 -0.00049152919 0.0075) the normal (-0.04361943 -0.99904822 -5.2235259e-22) differs from the average normal (-0.043619388 -0.99904822 2.3351852e-22) by 1.7584971e-15
Either correct the patch or split it into planar parts
--> FOAM Warning : 
    From function virtual void Foam::wedgePolyPatch::calcGeometry(Foam::PstreamBuffers&)
    in file meshes/polyMesh/polyPatches/constraint/wedge/wedgePolyPatch.C at line 69
    Wedge patch 'LeftWedge' is not planar.
At local face at (0.011257869 -0.00049152919 0.0225) the normal (-0.04361943 -0.99904822 -5.2235259e-22) differs from the average normal (-0.043619388 -0.99904822 2.3351852e-22) by 1.7584971e-15
Either correct the patch or split it into planar parts
--> FOAM Warning : 
    From function virtual void Foam::wedgePolyPatch::calcGeometry(Foam::PstreamBuffers&)
    in file meshes/polyMesh/polyPatches/constraint/wedge/wedgePolyPatch.C at line 69
    Wedge patch 'LeftWedge' is not planar.
At local face at (0.011257869 -0.00049152919 0.0375) the normal (-0.04361943 -0.99904822 -5.2235259e-22) differs from the average normal (-0.043619388 -0.99904822 2.3351852e-22) by 1.7584971e-15
Either correct the patch or split it into planar parts
--> FOAM Warning : 
    From function virtual void Foam::wedgePolyPatch::calcGeometry(Foam::PstreamBuffers&)
    in file meshes/polyMesh/polyPatches/constraint/wedge/wedgePolyPatch.C at line 69
    Wedge patch 'LeftWedge' is not planar.
At local face at (0.011257869 -0.00049152919 0.0525) the normal (-0.04361943 -0.99904822 -5.2235259e-22) differs from the average normal (-0.043619388 -0.99904822 2.3351852e-22) by 1.7584971e-15
Either correct the patch or split it into planar parts
--> FOAM Warning : 
    From function virtual void Foam::wedgePolyPatch::calcGeometry(Foam::PstreamBuffers&)
    in file meshes/polyMesh/polyPatches/constraint/wedge/wedgePolyPatch.C at line 69
    Wedge patch 'LeftWedge' is not planar.
At local face at (0.011257869 -0.00049152919 0.0675) the normal (-0.04361943 -0.99904822 -5.2235259e-22) differs from the average normal (-0.043619388 -0.99904822 2.3351852e-22) by 1.7584971e-15
Either correct the patch or split it into planar parts
--> FOAM Warning : 
    From function virtual void Foam::wedgePolyPatch::calcGeometry(Foam::PstreamBuffers&)
    in file meshes/polyMesh/polyPatches/constraint/wedge/wedgePolyPatch.C at line 69
    Wedge patch 'LeftWedge' is not planar.
At local face at (0.011257869 -0.00049152919 0.0825) the normal (-0.04361943 -0.99904822 -5.2235259e-22) differs from the average normal (-0.043619388 -0.99904822 2.3351852e-22) by 1.7584971e-15
Either correct the patch or split it into planar parts
--> FOAM Warning : 
    From function virtual void Foam::wedgePolyPatch::calcGeometry(Foam::PstreamBuffers&)
    in file meshes/polyMesh/polyPatches/constraint/wedge/wedgePolyPatch.C at line 69
    Wedge patch 'LeftWedge' is not planar.
At local face at (0.011257869 -0.00049152919 0.0975) the normal (-0.04361943 -0.99904822 -5.2235259e-22) differs from the average normal (-0.043619388 -0.99904822 2.3351852e-22) by 1.7584971e-15
Either correct the patch or split it into planar parts
--> FOAM Warning : 
    From function virtual void Foam::wedgePolyPatch::calcGeometry(Foam::PstreamBuffers&)
    in file meshes/polyMesh/polyPatches/constraint/wedge/wedgePolyPatch.C at line 69
    Wedge patch 'LeftWedge' is not planar.
At local face at (0.011257869 -0.00049152919 0.1125) the normal (-0.04361943 -0.99904822 -5.2235259e-22) differs from the average normal (-0.043619388 -0.99904822 2.3351852e-22) by 1.7584971e-15
Either correct the patch or split it into planar parts
--> FOAM Warning : 
    From function virtual void Foam::wedgePolyPatch::calcGeometry(Foam::PstreamBuffers&)
    in file meshes/polyMesh/polyPatches/constraint/wedge/wedgePolyPatch.C at line 69
    Wedge patch 'LeftWedge' is not planar.
At local face at (0.011257869 -0.00049152919 0.1275) the normal (-0.04361943 -0.99904822 -5.2235259e-22) differs from the average normal (-0.043619388 -0.99904822 2.3351852e-22) by 1.7584971e-15
Either correct the patch or split it into planar parts
--> FOAM Warning : 
    From function virtual void Foam::wedgePolyPatch::calcGeometry(Foam::PstreamBuffers&)
    in file meshes/polyMesh/polyPatches/constraint/wedge/wedgePolyPatch.C at line 69
    Wedge patch 'LeftWedge' is not planar.
At local face at (0.011257869 -0.00049152919 0.1425) the normal (-0.04361943 -0.99904822 -5.2235259e-22) differs from the average normal (-0.043619388 -0.99904822 2.3351852e-22) by 1.7584971e-15
Either correct the patch or split it into planar parts
--> FOAM Warning : 
    From function virtual void Foam::wedgePolyPatch::calcGeometry(Foam::PstreamBuffers&)
    in file meshes/polyMesh/polyPatches/constraint/wedge/wedgePolyPatch.C at line 69
    Wedge patch 'LeftWedge' is not planar.
At local face at (0.011257869 -0.00049152919 0.1575) the normal (-0.04361943 -0.99904822 -5.2235259e-22) differs from the average normal (-0.043619388 -0.99904822 2.3351852e-22) by 1.7584971e-15
Either correct the patch or split it into planar parts
--> FOAM Warning : 
    From function virtual void Foam::wedgePolyPatch::calcGeometry(Foam::PstreamBuffers&)
    in file meshes/polyMesh/polyPatches/constraint/wedge/wedgePolyPatch.C at line 69
    Wedge patch 'LeftWedge' is not planar.
At local face at (0.011257869 -0.00049152919 0.1725) the normal (-0.04361943 -0.99904822 -5.2235259e-22) differs from the average normal (-0.043619388 -0.99904822 2.3351852e-22) by 1.7584971e-15
Either correct the patch or split it into planar parts
--> FOAM Warning : 
    From function virtual void Foam::wedgePolyPatch::calcGeometry(Foam::PstreamBuffers&)
    in file meshes/polyMesh/polyPatches/constraint/wedge/wedgePolyPatch.C at line 69
    Wedge patch 'LeftWedge' is not planar.
At local face at (0.011257869 -0.00049152919 0.1875) the normal (-0.04361943 -0.99904822 -5.2235259e-22) differs from the average normal (-0.043619388 -0.99904822 2.3351852e-22) by 1.7584971e-15
Either correct the patch or split it into planar parts
--> FOAM Warning : 
    From function virtual void Foam::wedgePolyPatch::calcGeometry(Foam::PstreamBuffers&)
    in file meshes/polyMesh/polyPatches/constraint/wedge/wedgePolyPatch.C at line 69
    Wedge patch 'LeftWedge' is not planar.
At local face at (0.011257869 -0.00049152919 0.2025) the normal (-0.04361943 -0.99904822 -5.2235259e-22) differs from the average normal (-0.043619388 -0.99904822 2.3351852e-22) by 1.7584971e-15
Either correct the patch or split it into planar parts
--> FOAM Warning : 
    From function virtual void Foam::wedgePolyPatch::calcGeometry(Foam::PstreamBuffers&)
    in file meshes/polyMesh/polyPatches/constraint/wedge/wedgePolyPatch.C at line 69
    Wedge patch 'LeftWedge' is not planar.
At local face at (0.011257869 -0.00049152919 0.2175) the normal (-0.04361943 -0.99904822 -5.2235259e-22) differs from the average normal (-0.043619388 -0.99904822 2.3351852e-22) by 1.7584971e-15
Either correct the patch or split it into planar parts
--> FOAM Warning : 
    From function virtual void Foam::wedgePolyPatch::calcGeometry(Foam::PstreamBuffers&)
    in file meshes/polyMesh/polyPatches/constraint/wedge/wedgePolyPatch.C at line 69
    Wedge patch 'LeftWedge' is not planar.
At local face at (0.011257869 -0.00049152919 0.2325) the normal (-0.04361943 -0.99904822 -5.2235259e-22) differs from the average normal (-0.043619388 -0.99904822 2.3351852e-22) by 1.7584971e-15
Either correct the patch or split it into planar parts
--> FOAM Warning : 
    From function virtual void Foam::wedgePolyPatch::calcGeometry(Foam::PstreamBuffers&)
    in file meshes/polyMesh/polyPatches/constraint/wedge/wedgePolyPatch.C at line 69
    Wedge patch 'LeftWedge' is not planar.
At local face at (0.011257869 -0.00049152919 0.2475) the normal (-0.04361943 -0.99904822 -5.2235259e-22) differs from the average normal (-0.043619388 -0.99904822 2.3351852e-22) by 1.7584971e-15
Either correct the patch or split it into planar parts
--> FOAM Warning : 
    From function virtual void Foam::wedgePolyPatch::calcGeometry(Foam::PstreamBuffers&)
    in file meshes/polyMesh/polyPatches/constraint/wedge/wedgePolyPatch.C at line 69
    Wedge patch 'LeftWedge' is not planar.
At local face at (0.011257869 -0.00049152919 0.2625) the normal (-0.04361943 -0.99904822 -5.2235259e-22) differs from the average normal (-0.043619388 -0.99904822 2.3351852e-22) by 1.7584971e-15
Either correct the patch or split it into planar parts
--> FOAM Warning : 
    From function virtual void Foam::wedgePolyPatch::calcGeometry(Foam::PstreamBuffers&)
    in file meshes/polyMesh/polyPatches/constraint/wedge/wedgePolyPatch.C at line 69
    Wedge patch 'LeftWedge' is not planar.
At local face at (0.011257869 -0.00049152919 0.2775) the normal (-0.04361943 -0.99904822 -5.2235259e-22) differs from the average normal (-0.043619388 -0.99904822 2.3351852e-22) by 1.7584971e-15
Either correct the patch or split it into planar parts
--> FOAM Warning : 
    From function virtual void Foam::wedgePolyPatch::calcGeometry(Foam::PstreamBuffers&)
    in file meshes/polyMesh/polyPatches/constraint/wedge/wedgePolyPatch.C at line 69
    Wedge patch 'LeftWedge' is not planar.
At local face at (0.011257869 -0.00049152919 0.2925) the normal (-0.04361943 -0.99904822 -5.2235259e-22) differs from the average normal (-0.043619388 -0.99904822 2.3351852e-22) by 1.7584971e-15
Either correct the patch or split it into planar parts
--> FOAM Warning : 
    From function virtual void Foam::wedgePolyPatch::calcGeometry(Foam::PstreamBuffers&)
    in file meshes/polyMesh/polyPatches/constraint/wedge/wedgePolyPatch.C at line 69
    Wedge patch 'LeftWedge' is not planar.
At local face at (0.011257869 -0.00049152919 0.3075) the normal (-0.04361943 -0.99904822 -5.2235259e-22) differs from the average normal (-0.043619388 -0.99904822 2.3351852e-22) by 1.7584971e-15
Either correct the patch or split it into planar parts
--> FOAM Warning : 
    From function virtual void Foam::wedgePolyPatch::calcGeometry(Foam::PstreamBuffers&)
    in file meshes/polyMesh/polyPatches/constraint/wedge/wedgePolyPatch.C at line 69
    Wedge patch 'LeftWedge' is not planar.
At local face at (0.011257869 -0.00049152919 0.3225) the normal (-0.04361943 -0.99904822 -5.2235259e-22) differs from the average normal (-0.043619388 -0.99904822 2.3351852e-22) by 1.7584971e-15
Either correct the patch or split it into planar parts
--> FOAM Warning : 
    From function virtual void Foam::wedgePolyPatch::calcGeometry(Foam::PstreamBuffers&)
    in file meshes/polyMesh/polyPatches/constraint/wedge/wedgePolyPatch.C at line 69
    Wedge patch 'LeftWedge' is not planar.
At local face at (0.011257869 -0.00049152919 0.3375) the normal (-0.04361943 -0.99904822 -5.2235259e-22) differs from the average normal (-0.043619388 -0.99904822 2.3351852e-22) by 1.7584971e-15
Either correct the patch or split it into planar parts
--> FOAM Warning : 
    From function virtual void Foam::wedgePolyPatch::calcGeometry(Foam::PstreamBuffers&)
    in file meshes/polyMesh/polyPatches/constraint/wedge/wedgePolyPatch.C at line 69
    Wedge patch 'LeftWedge' is not planar.
At local face at (0.011257869 -0.00049152919 0.3525) the normal (-0.04361943 -0.99904822 -5.2235259e-22) differs from the average normal (-0.043619388 -0.99904822 2.3351852e-22) by 1.7584971e-15
Either correct the patch or split it into planar parts
--> FOAM Warning : 
    From function virtual void Foam::wedgePolyPatch::calcGeometry(Foam::PstreamBuffers&)
    in file meshes/polyMesh/polyPatches/constraint/wedge/wedgePolyPatch.C at line 69
    Wedge patch 'LeftWedge' is not planar.
At local face at (0.011257869 -0.00049152919 0.3675) the normal (-0.04361943 -0.99904822 -5.2235259e-22) differs from the average normal (-0.043619388 -0.99904822 2.3351852e-22) by 1.7584971e-15
Either correct the patch or split it into planar parts
--> FOAM Warning : 
    From function virtual void Foam::wedgePolyPatch::calcGeometry(Foam::PstreamBuffers&)
    in file meshes/polyMesh/polyPatches/constraint/wedge/wedgePolyPatch.C at line 69
    Wedge patch 'LeftWedge' is not planar.
At local face at (0.011257869 -0.00049152919 0.3825) the normal (-0.04361943 -0.99904822 -5.2235259e-22) differs from the average normal (-0.043619388 -0.99904822 2.3351852e-22) by 1.7584971e-15
Either correct the patch or split it into planar parts
--> FOAM Warning : 
    From function virtual void Foam::wedgePolyPatch::calcGeometry(Foam::PstreamBuffers&)
    in file meshes/polyMesh/polyPatches/constraint/wedge/wedgePolyPatch.C at line 69
    Wedge patch 'LeftWedge' is not planar.
At local face at (0.011257869 -0.00049152919 0.3975) the normal (-0.04361943 -0.99904822 -5.2235259e-22) differs from the average normal (-0.043619388 -0.99904822 2.3351852e-22) by 1.7584971e-15
Either correct the patch or split it into planar parts
--> FOAM Warning : 
    From function virtual void Foam::wedgePolyPatch::calcGeometry(Foam::PstreamBuffers&)
    in file meshes/polyMesh/polyPatches/constraint/wedge/wedgePolyPatch.C at line 69
    Wedge patch 'LeftWedge' is not planar.
At local face at (0.011257869 -0.00049152919 0.4125) the normal (-0.04361943 -0.99904822 -5.2235259e-22) differs from the average normal (-0.043619388 -0.99904822 2.3351852e-22) by 1.7584971e-15
Either correct the patch or split it into planar parts
--> FOAM Warning : 
    From function virtual void Foam::wedgePolyPatch::calcGeometry(Foam::PstreamBuffers&)
    in file meshes/polyMesh/polyPatches/constraint/wedge/wedgePolyPatch.C at line 69
    Wedge patch 'LeftWedge' is not planar.
At local face at (0.011257869 -0.00049152919 0.4275) the normal (-0.04361943 -0.99904822 -5.2235259e-22) differs from the average normal (-0.043619388 -0.99904822 2.3351852e-22) by 1.7584971e-15
Either correct the patch or split it into planar parts
--> FOAM Warning : 
    From function virtual void Foam::wedgePolyPatch::calcGeometry(Foam::PstreamBuffers&)
    in file meshes/polyMesh/polyPatches/constraint/wedge/wedgePolyPatch.C at line 69
    Wedge patch 'LeftWedge' is not planar.
At local face at (0.011257869 -0.00049152919 0.4425) the normal (-0.04361943 -0.99904822 -5.2235259e-22) differs from the average normal (-0.043619388 -0.99904822 2.3351852e-22) by 1.7584971e-15
Either correct the patch or split it into planar parts
--> FOAM Warning : 
    From function virtual void Foam::wedgePolyPatch::calcGeometry(Foam::PstreamBuffers&)
    in file meshes/polyMesh/polyPatches/constraint/wedge/wedgePolyPatch.C at line 69
    Wedge patch 'LeftWedge' is not planar.
At local face at (0.011257869 -0.00049152919 0.4575) the normal (-0.04361943 -0.99904822 -5.2235259e-22) differs from the average normal (-0.043619388 -0.99904822 2.3351852e-22) by 1.7584971e-15
Either correct the patch or split it into planar parts
--> FOAM Warning : 
    From function virtual void Foam::wedgePolyPatch::calcGeometry(Foam::PstreamBuffers&)
    in file meshes/polyMesh/polyPatches/constraint/wedge/wedgePolyPatch.C at line 69
    Wedge patch 'LeftWedge' is not planar.
At local face at (0.011257869 -0.00049152919 0.4725) the normal (-0.04361943 -0.99904822 -5.2235259e-22) differs from the average normal (-0.043619388 -0.99904822 2.3351852e-22) by 1.7584971e-15
Either correct the patch or split it into planar parts
--> FOAM Warning : 
    From function virtual void Foam::wedgePolyPatch::calcGeometry(Foam::PstreamBuffers&)
    in file meshes/polyMesh/polyPatches/constraint/wedge/wedgePolyPatch.C at line 69
    Wedge patch 'LeftWedge' is not planar.
At local face at (0.011257869 -0.00049152919 0.4875) the normal (-0.04361943 -0.99904822 -5.2235259e-22) differs from the average normal (-0.043619388 -0.99904822 2.3351852e-22) by 1.7584971e-15
Either correct the patch or split it into planar parts
--> FOAM Warning : 
    From function virtual void Foam::wedgePolyPatch::calcGeometry(Foam::PstreamBuffers&)
    in file meshes/polyMesh/polyPatches/constraint/wedge/wedgePolyPatch.C at line 69
    Wedge patch 'LeftWedge' is not planar.
At local face at (0.011257869 -0.00049152919 0.5025) the normal (-0.04361943 -0.99904822 -5.2235259e-22) differs from the average normal (-0.043619388 -0.99904822 2.3351852e-22) by 1.7584971e-15
Either correct the patch or split it into planar parts
--> FOAM Warning : 
    From function virtual void Foam::wedgePolyPatch::calcGeometry(Foam::PstreamBuffers&)
    in file meshes/polyMesh/polyPatches/constraint/wedge/wedgePolyPatch.C at line 69
    Wedge patch 'LeftWedge' is not planar.
At local face at (0.011257869 -0.00049152919 0.5175) the normal (-0.04361943 -0.99904822 -5.2235259e-22) differs from the average normal (-0.043619388 -0.99904822 2.3351852e-22) by 1.7584971e-15
Either correct the patch or split it into planar parts
--> FOAM Warning : 
    From function virtual void Foam::wedgePolyPatch::calcGeometry(Foam::PstreamBuffers&)
    in file meshes/polyMesh/polyPatches/constraint/wedge/wedgePolyPatch.C at line 69
    Wedge patch 'LeftWedge' is not planar.
At local face at (0.011257869 -0.00049152919 0.5325) the normal (-0.04361943 -0.99904822 -5.2235259e-22) differs from the average normal (-0.043619388 -0.99904822 2.3351852e-22) by 1.7584971e-15
Either correct the patch or split it into planar parts
--> FOAM Warning : 
    From function virtual void Foam::wedgePolyPatch::calcGeometry(Foam::PstreamBuffers&)
    in file meshes/polyMesh/polyPatches/constraint/wedge/wedgePolyPatch.C at line 69
    Wedge patch 'LeftWedge' is not planar.
At local face at (0.011257869 -0.00049152919 0.5475) the normal (-0.04361943 -0.99904822 -5.2235259e-22) differs from the average normal (-0.043619388 -0.99904822 2.3351852e-22) by 1.7584971e-15
Either correct the patch or split it into planar parts
--> FOAM Warning : 
    From function virtual void Foam::wedgePolyPatch::calcGeometry(Foam::PstreamBuffers&)
    in file meshes/polyMesh/polyPatches/constraint/wedge/wedgePolyPatch.C at line 69
    Wedge patch 'LeftWedge' is not planar.
At local face at (0.011257869 -0.00049152919 0.5625) the normal (-0.04361943 -0.99904822 -5.2235259e-22) differs from the average normal (-0.043619388 -0.99904822 2.3351852e-22) by 1.7584971e-15
Either correct the patch or split it into planar parts
--> FOAM Warning : 
    From function virtual void Foam::wedgePolyPatch::calcGeometry(Foam::PstreamBuffers&)
    in file meshes/polyMesh/polyPatches/constraint/wedge/wedgePolyPatch.C at line 69
    Wedge patch 'LeftWedge' is not planar.
At local face at (0.011257869 -0.00049152919 0.5775) the normal (-0.04361943 -0.99904822 -5.2235259e-22) differs from the average normal (-0.043619388 -0.99904822 2.3351852e-22) by 1.7584971e-15
Either correct the patch or split it into planar parts
--> FOAM Warning : 
    From function virtual void Foam::wedgePolyPatch::calcGeometry(Foam::PstreamBuffers&)
    in file meshes/polyMesh/polyPatches/constraint/wedge/wedgePolyPatch.C at line 69
    Wedge patch 'LeftWedge' is not planar.
At local face at (0.011257869 -0.00049152919 0.5925) the normal (-0.04361943 -0.99904822 -5.2235259e-22) differs from the average normal (-0.043619388 -0.99904822 2.3351852e-22) by 1.7584971e-15
Either correct the patch or split it into planar parts
--> FOAM Warning : 
    From function virtual void Foam::wedgePolyPatch::calcGeometry(Foam::PstreamBuffers&)
    in file meshes/polyMesh/polyPatches/constraint/wedge/wedgePolyPatch.C at line 69
    Wedge patch 'LeftWedge' is not planar.
At local face at (0.011257869 -0.00049152919 0.6075) the normal (-0.04361943 -0.99904822 -5.2235259e-22) differs from the average normal (-0.043619388 -0.99904822 2.3351852e-22) by 1.7584971e-15
Either correct the patch or split it into planar parts
--> FOAM Warning : 
    From function virtual void Foam::wedgePolyPatch::calcGeometry(Foam::PstreamBuffers&)
    in file meshes/polyMesh/polyPatches/constraint/wedge/wedgePolyPatch.C at line 69
    Wedge patch 'LeftWedge' is not planar.
At local face at (0.011257869 -0.00049152919 0.6225) the normal (-0.04361943 -0.99904822 -5.2235259e-22) differs from the average normal (-0.043619388 -0.99904822 2.3351852e-22) by 1.7584971e-15
Either correct the patch or split it into planar parts
--> FOAM Warning : 
    From function virtual void Foam::wedgePolyPatch::calcGeometry(Foam::PstreamBuffers&)
    in file meshes/polyMesh/polyPatches/constraint/wedge/wedgePolyPatch.C at line 69
    Wedge patch 'LeftWedge' is not planar.
At local face at (0.011257869 -0.00049152919 0.6375) the normal (-0.04361943 -0.99904822 -5.2235259e-22) differs from the average normal (-0.043619388 -0.99904822 2.3351852e-22) by 1.7584971e-15
Either correct the patch or split it into planar parts
--> FOAM Warning : 
    From function virtual void Foam::wedgePolyPatch::calcGeometry(Foam::PstreamBuffers&)
    in file meshes/polyMesh/polyPatches/constraint/wedge/wedgePolyPatch.C at line 69
    Wedge patch 'LeftWedge' is not planar.
At local face at (0.011257869 -0.00049152919 0.6525) the normal (-0.04361943 -0.99904822 -5.2235259e-22) differs from the average normal (-0.043619388 -0.99904822 2.3351852e-22) by 1.7584971e-15
Either correct the patch or split it into planar parts
--> FOAM Warning : 
    From function virtual void Foam::wedgePolyPatch::calcGeometry(Foam::PstreamBuffers&)
    in file meshes/polyMesh/polyPatches/constraint/wedge/wedgePolyPatch.C at line 69
    Wedge patch 'LeftWedge' is not planar.
At local face at (0.011257869 -0.00049152919 0.6675) the normal (-0.04361943 -0.99904822 -5.2235259e-22) differs from the average normal (-0.043619388 -0.99904822 2.3351852e-22) by 1.7584971e-15
Either correct the patch or split it into planar parts
--> FOAM Warning : 
    From function virtual void Foam::wedgePolyPatch::calcGeometry(Foam::PstreamBuffers&)
    in file meshes/polyMesh/polyPatches/constraint/wedge/wedgePolyPatch.C at line 69
    Wedge patch 'LeftWedge' is not planar.
At local face at (0.011257869 -0.00049152919 0.6825) the normal (-0.04361943 -0.99904822 -5.2235259e-22) differs from the average normal (-0.043619388 -0.99904822 2.3351852e-22) by 1.7584971e-15
Either correct the patch or split it into planar parts
--> FOAM Warning : 
    From function virtual void Foam::wedgePolyPatch::calcGeometry(Foam::PstreamBuffers&)
    in file meshes/polyMesh/polyPatches/constraint/wedge/wedgePolyPatch.C at line 69
    Wedge patch 'LeftWedge' is not planar.
At local face at (0.011257869 -0.00049152919 0.6975) the normal (-0.04361943 -0.99904822 -5.2235259e-22) differs from the average normal (-0.043619388 -0.99904822 2.3351852e-22) by 1.7584971e-15
Either correct the patch or split it into planar parts
--> FOAM Warning : 
    From function virtual void Foam::wedgePolyPatch::calcGeometry(Foam::PstreamBuffers&)
    in file meshes/polyMesh/polyPatches/constraint/wedge/wedgePolyPatch.C at line 69
    Wedge patch 'LeftWedge' is not planar.
At local face at (0.011257869 -0.00049152919 0.7125) the normal (-0.04361943 -0.99904822 -5.2235259e-22) differs from the average normal (-0.043619388 -0.99904822 2.3351852e-22) by 1.7584971e-15
Either correct the patch or split it into planar parts
--> FOAM Warning : 
    From function virtual void Foam::wedgePolyPatch::calcGeometry(Foam::PstreamBuffers&)
    in file meshes/polyMesh/polyPatches/constraint/wedge/wedgePolyPatch.C at line 69
    Wedge patch 'LeftWedge' is not planar.
At local face at (0.011257869 -0.00049152919 0.7275) the normal (-0.04361943 -0.99904822 -5.2235259e-22) differs from the average normal (-0.043619388 -0.99904822 2.3351852e-22) by 1.7584971e-15
Either correct the patch or split it into planar parts
--> FOAM Warning : 
    From function virtual void Foam::wedgePolyPatch::calcGeometry(Foam::PstreamBuffers&)
    in file meshes/polyMesh/polyPatches/constraint/wedge/wedgePolyPatch.C at line 69
    Wedge patch 'LeftWedge' is not planar.
At local face at (0.011257869 -0.00049152919 0.7425) the normal (-0.04361943 -0.99904822 -5.2235259e-22) differs from the average normal (-0.043619388 -0.99904822 2.3351852e-22) by 1.7584971e-15
Either correct the patch or split it into planar parts
--> FOAM Warning : 
    From function virtual void Foam::wedgePolyPatch::calcGeometry(Foam::PstreamBuffers&)
    in file meshes/polyMesh/polyPatches/constraint/wedge/wedgePolyPatch.C at line 69
    Wedge patch 'LeftWedge' is not planar.
At local face at (0.011257869 -0.00049152919 0.7575) the normal (-0.04361943 -0.99904822 -5.2235259e-22) differs from the average normal (-0.043619388 -0.99904822 2.3351852e-22) by 1.7584971e-15
Either correct the patch or split it into planar parts
--> FOAM Warning : 
    From function virtual void Foam::wedgePolyPatch::calcGeometry(Foam::PstreamBuffers&)
    in file meshes/polyMesh/polyPatches/constraint/wedge/wedgePolyPatch.C at line 69
    Wedge patch 'LeftWedge' is not planar.
At local face at (0.011257869 -0.00049152919 0.7725) the normal (-0.04361943 -0.99904822 -5.2235259e-22) differs from the average normal (-0.043619388 -0.99904822 2.3351852e-22) by 1.7584971e-15
Either correct the patch or split it into planar parts
--> FOAM Warning : 
    From function virtual void Foam::wedgePolyPatch::calcGeometry(Foam::PstreamBuffers&)
    in file meshes/polyMesh/polyPatches/constraint/wedge/wedgePolyPatch.C at line 69
    Wedge patch 'LeftWedge' is not planar.
At local face at (0.011257869 -0.00049152919 0.7875) the normal (-0.04361943 -0.99904822 -5.2235259e-22) differs from the average normal (-0.043619388 -0.99904822 2.3351852e-22) by 1.7584971e-15
Either correct the patch or split it into planar parts
--> FOAM Warning : 
    From function virtual void Foam::wedgePolyPatch::calcGeometry(Foam::PstreamBuffers&)
    in file meshes/polyMesh/polyPatches/constraint/wedge/wedgePolyPatch.C at line 69
    Wedge patch 'LeftWedge' is not planar.
At local face at (0.011257869 -0.00049152919 0.8025) the normal (-0.04361943 -0.99904822 -5.2235259e-22) differs from the average normal (-0.043619388 -0.99904822 2.3351852e-22) by 1.7584971e-15
Either correct the patch or split it into planar parts
--> FOAM Warning : 
    From function virtual void Foam::wedgePolyPatch::calcGeometry(Foam::PstreamBuffers&)
    in file meshes/polyMesh/polyPatches/constraint/wedge/wedgePolyPatch.C at line 69
    Wedge patch 'LeftWedge' is not planar.
At local face at (0.011257869 -0.00049152919 0.8175) the normal (-0.04361943 -0.99904822 -5.2235259e-22) differs from the average normal (-0.043619388 -0.99904822 2.3351852e-22) by 1.7584971e-15
Either correct the patch or split it into planar parts
--> FOAM Warning : 
    From function virtual void Foam::wedgePolyPatch::calcGeometry(Foam::PstreamBuffers&)
    in file meshes/polyMesh/polyPatches/constraint/wedge/wedgePolyPatch.C at line 69
    Wedge patch 'LeftWedge' is not planar.
At local face at (0.011257869 -0.00049152919 0.8325) the normal (-0.04361943 -0.99904822 -5.2235259e-22) differs from the average normal (-0.043619388 -0.99904822 2.3351852e-22) by 1.7584971e-15
Either correct the patch or split it into planar parts
--> FOAM Warning : 
    From function virtual void Foam::wedgePolyPatch::calcGeometry(Foam::PstreamBuffers&)
    in file meshes/polyMesh/polyPatches/constraint/wedge/wedgePolyPatch.C at line 69
    Wedge patch 'LeftWedge' is not planar.
At local face at (0.011257869 -0.00049152919 0.8475) the normal (-0.04361943 -0.99904822 -5.2235259e-22) differs from the average normal (-0.043619388 -0.99904822 2.3351852e-22) by 1.7584971e-15
Either correct the patch or split it into planar parts
--> FOAM Warning : 
    From function virtual void Foam::wedgePolyPatch::calcGeometry(Foam::PstreamBuffers&)
    in file meshes/polyMesh/polyPatches/constraint/wedge/wedgePolyPatch.C at line 69
    Wedge patch 'LeftWedge' is not planar.
At local face at (0.011257869 -0.00049152919 0.8625) the normal (-0.04361943 -0.99904822 -5.2235259e-22) differs from the average normal (-0.043619388 -0.99904822 2.3351852e-22) by 1.7584971e-15
Either correct the patch or split it into planar parts
--> FOAM Warning : 
    From function virtual void Foam::wedgePolyPatch::calcGeometry(Foam::PstreamBuffers&)
    in file meshes/polyMesh/polyPatches/constraint/wedge/wedgePolyPatch.C at line 69
    Wedge patch 'LeftWedge' is not planar.
At local face at (0.011257869 -0.00049152919 0.8775) the normal (-0.04361943 -0.99904822 -5.2235259e-22) differs from the average normal (-0.043619388 -0.99904822 2.3351852e-22) by 1.7584971e-15
Either correct the patch or split it into planar parts
--> FOAM Warning : 
    From function virtual void Foam::wedgePolyPatch::calcGeometry(Foam::PstreamBuffers&)
    in file meshes/polyMesh/polyPatches/constraint/wedge/wedgePolyPatch.C at line 69
    Wedge patch 'LeftWedge' is not planar.
At local face at (0.011257869 -0.00049152919 0.8925) the normal (-0.04361943 -0.99904822 -5.2235259e-22) differs from the average normal (-0.043619388 -0.99904822 2.3351852e-22) by 1.7584971e-15
Either correct the patch or split it into planar parts
--> FOAM Warning : 
    From function virtual void Foam::wedgePolyPatch::calcGeometry(Foam::PstreamBuffers&)
    in file meshes/polyMesh/polyPatches/constraint/wedge/wedgePolyPatch.C at line 69
    Wedge patch 'LeftWedge' is not planar.
At local face at (0.011257869 -0.00049152919 0.9075) the normal (-0.04361943 -0.99904822 -5.2235259e-22) differs from the average normal (-0.043619388 -0.99904822 2.3351852e-22) by 1.7584971e-15
Either correct the patch or split it into planar parts
--> FOAM Warning : 
    From function virtual void Foam::wedgePolyPatch::calcGeometry(Foam::PstreamBuffers&)
    in file meshes/polyMesh/polyPatches/constraint/wedge/wedgePolyPatch.C at line 69
    Wedge patch 'LeftWedge' is not planar.
At local face at (0.011257869 -0.00049152919 0.9225) the normal (-0.04361943 -0.99904822 -5.2235259e-22) differs from the average normal (-0.043619388 -0.99904822 2.3351852e-22) by 1.7584971e-15
Either correct the patch or split it into planar parts
--> FOAM Warning : 
    From function virtual void Foam::wedgePolyPatch::calcGeometry(Foam::PstreamBuffers&)
    in file meshes/polyMesh/polyPatches/constraint/wedge/wedgePolyPatch.C at line 69
    Wedge patch 'LeftWedge' is not planar.
At local face at (0.011257869 -0.00049152919 0.9375) the normal (-0.04361943 -0.99904822 -5.2235259e-22) differs from the average normal (-0.043619388 -0.99904822 2.3351852e-22) by 1.7584971e-15
Either correct the patch or split it into planar parts
--> FOAM Warning : 
    From function virtual void Foam::wedgePolyPatch::calcGeometry(Foam::PstreamBuffers&)
    in file meshes/polyMesh/polyPatches/constraint/wedge/wedgePolyPatch.C at line 69
    Wedge patch 'LeftWedge' is not planar.
At local face at (0.011257869 -0.00049152919 0.9525) the normal (-0.04361943 -0.99904822 -5.2235259e-22) differs from the average normal (-0.043619388 -0.99904822 2.3351852e-22) by 1.7584971e-15
Either correct the patch or split it into planar parts
--> FOAM Warning : 
    From function virtual void Foam::wedgePolyPatch::calcGeometry(Foam::PstreamBuffers&)
    in file meshes/polyMesh/polyPatches/constraint/wedge/wedgePolyPatch.C at line 69
    Wedge patch 'LeftWedge' is not planar.
At local face at (0.011257869 -0.00049152919 0.9675) the normal (-0.04361943 -0.99904822 -5.2235259e-22) differs from the average normal (-0.043619388 -0.99904822 2.3351852e-22) by 1.7584971e-15
Either correct the patch or split it into planar parts
--> FOAM Warning : 
    From function virtual void Foam::wedgePolyPatch::calcGeometry(Foam::PstreamBuffers&)
    in file meshes/polyMesh/polyPatches/constraint/wedge/wedgePolyPatch.C at line 69
    Wedge patch 'LeftWedge' is not planar.
At local face at (0.011257869 -0.00049152919 0.9825) the normal (-0.04361943 -0.99904822 -5.2235259e-22) differs from the average normal (-0.043619388 -0.99904822 2.3351852e-22) by 1.7584971e-15
Either correct the patch or split it into planar parts
--> FOAM Warning : 
    From function virtual void Foam::wedgePolyPatch::calcGeometry(Foam::PstreamBuffers&)
    in file meshes/polyMesh/polyPatches/constraint/wedge/wedgePolyPatch.C at line 69
    Wedge patch 'LeftWedge' is not planar.
At local face at (0.011257869 -0.00049152919 0.9975) the normal (-0.04361943 -0.99904822 -5.2235259e-22) differs from the average normal (-0.043619388 -0.99904822 2.3351852e-22) by 1.7584971e-15
Either correct the patch or split it into planar parts
--> FOAM Warning : 
    From function virtual void Foam::wedgePolyPatch::calcGeometry(Foam::PstreamBuffers&)
    in file meshes/polyMesh/polyPatches/constraint/wedge/wedgePolyPatch.C at line 69
    Wedge patch 'LeftWedge' is not planar.
At local face at (0.011257869 -0.00049152919 1.0125) the normal (-0.04361943 -0.99904822 -5.2235259e-22) differs from the average normal (-0.043619388 -0.99904822 2.3351852e-22) by 1.7584971e-15
Either correct the patch or split it into planar parts
--> FOAM Warning : 
    From function virtual void Foam::wedgePolyPatch::calcGeometry(Foam::PstreamBuffers&)
    in file meshes/polyMesh/polyPatches/constraint/wedge/wedgePolyPatch.C at line 69
    Wedge patch 'LeftWedge' is not planar.
At local face at (0.011257869 -0.00049152919 1.0275) the normal (-0.04361943 -0.99904822 -5.2235259e-22) differs from the average normal (-0.043619388 -0.99904822 2.3351852e-22) by 1.7584971e-15
Either correct the patch or split it into planar parts
--> FOAM Warning : 
    From function virtual void Foam::wedgePolyPatch::calcGeometry(Foam::PstreamBuffers&)
    in file meshes/polyMesh/polyPatches/constraint/wedge/wedgePolyPatch.C at line 69
    Wedge patch 'LeftWedge' is not planar.
At local face at (0.011257869 -0.00049152919 1.0425) the normal (-0.04361943 -0.99904822 -5.2235259e-22) differs from the average normal (-0.043619388 -0.99904822 2.3351852e-22) by 1.7584971e-15
Either correct the patch or split it into planar parts
--> FOAM Warning : 
    From function virtual void Foam::wedgePolyPatch::calcGeometry(Foam::PstreamBuffers&)
    in file meshes/polyMesh/polyPatches/constraint/wedge/wedgePolyPatch.C at line 69
    Wedge patch 'LeftWedge' is not planar.
At local face at (0.011257869 -0.00049152919 1.0575) the normal (-0.04361943 -0.99904822 -5.2235259e-22) differs from the average normal (-0.043619388 -0.99904822 2.3351852e-22) by 1.7584971e-15
Either correct the patch or split it into planar parts
--> FOAM Warning : 
    From function virtual void Foam::wedgePolyPatch::calcGeometry(Foam::PstreamBuffers&)
    in file meshes/polyMesh/polyPatches/constraint/wedge/wedgePolyPatch.C at line 69
    Wedge patch 'LeftWedge' is not planar.
At local face at (0.011257869 -0.00049152919 1.0725) the normal (-0.04361943 -0.99904822 -5.2235259e-22) differs from the average normal (-0.043619388 -0.99904822 2.3351852e-22) by 1.7584971e-15
Either correct the patch or split it into planar parts
--> FOAM Warning : 
    From function virtual void Foam::wedgePolyPatch::calcGeometry(Foam::PstreamBuffers&)
    in file meshes/polyMesh/polyPatches/constraint/wedge/wedgePolyPatch.C at line 69
    Wedge patch 'LeftWedge' is not planar.
At local face at (0.011257869 -0.00049152919 1.0875) the normal (-0.04361943 -0.99904822 -5.2235259e-22) differs from the average normal (-0.043619388 -0.99904822 2.3351852e-22) by 1.7584971e-15
Either correct the patch or split it into planar parts
--> FOAM Warning : 
    From function virtual void Foam::wedgePolyPatch::calcGeometry(Foam::PstreamBuffers&)
    in file meshes/polyMesh/polyPatches/constraint/wedge/wedgePolyPatch.C at line 69
    Wedge patch 'LeftWedge' is not planar.
At local face at (0.011257869 -0.00049152919 1.1025) the normal (-0.04361943 -0.99904822 -5.2235259e-22) differs from the average normal (-0.043619388 -0.99904822 2.3351852e-22) by 1.7584971e-15
Either correct the patch or split it into planar parts
--> FOAM Warning : 
    From function virtual void Foam::wedgePolyPatch::calcGeometry(Foam::PstreamBuffers&)
    in file meshes/polyMesh/polyPatches/constraint/wedge/wedgePolyPatch.C at line 69
    Wedge patch 'LeftWedge' is not planar.
At local face at (0.011257869 -0.00049152919 1.1175) the normal (-0.04361943 -0.99904822 -5.2235259e-22) differs from the average normal (-0.043619388 -0.99904822 2.3351852e-22) by 1.7584971e-15
Either correct the patch or split it into planar parts
--> FOAM Warning : 
    From function virtual void Foam::wedgePolyPatch::calcGeometry(Foam::PstreamBuffers&)
    in file meshes/polyMesh/polyPatches/constraint/wedge/wedgePolyPatch.C at line 69
    Wedge patch 'LeftWedge' is not planar.
At local face at (0.011257869 -0.00049152919 1.1325) the normal (-0.04361943 -0.99904822 -5.2235259e-22) differs from the average normal (-0.043619388 -0.99904822 2.3351852e-22) by 1.7584971e-15
Either correct the patch or split it into planar parts
--> FOAM Warning : 
    From function virtual void Foam::wedgePolyPatch::calcGeometry(Foam::PstreamBuffers&)
    in file meshes/polyMesh/polyPatches/constraint/wedge/wedgePolyPatch.C at line 69
    Wedge patch 'LeftWedge' is not planar.
At local face at (0.011257869 -0.00049152919 1.1475) the normal (-0.04361943 -0.99904822 -5.2235259e-22) differs from the average normal (-0.043619388 -0.99904822 2.3351852e-22) by 1.7584971e-15
Either correct the patch or split it into planar parts
--> FOAM Warning : 
    From function virtual void Foam::wedgePolyPatch::calcGeometry(Foam::PstreamBuffers&)
    in file meshes/polyMesh/polyPatches/constraint/wedge/wedgePolyPatch.C at line 69
    Wedge patch 'LeftWedge' is not planar.
At local face at (0.011257869 -0.00049152919 1.1625) the normal (-0.04361943 -0.99904822 -5.2235259e-22) differs from the average normal (-0.043619388 -0.99904822 2.3351852e-22) by 1.7584971e-15
Either correct the patch or split it into planar parts
--> FOAM Warning : 
    From function virtual void Foam::wedgePolyPatch::calcGeometry(Foam::PstreamBuffers&)
    in file meshes/polyMesh/polyPatches/constraint/wedge/wedgePolyPatch.C at line 69
    Wedge patch 'LeftWedge' is not planar.
At local face at (0.011257869 -0.00049152919 1.1775) the normal (-0.04361943 -0.99904822 -5.2235259e-22) differs from the average normal (-0.043619388 -0.99904822 2.3351852e-22) by 1.7584971e-15
Either correct the patch or split it into planar parts
--> FOAM Warning : 
    From function virtual void Foam::wedgePolyPatch::calcGeometry(Foam::PstreamBuffers&)
    in file meshes/polyMesh/polyPatches/constraint/wedge/wedgePolyPatch.C at line 69
    Wedge patch 'LeftWedge' is not planar.
At local face at (0.011257869 -0.00049152919 1.1925) the normal (-0.04361943 -0.99904822 -5.2235259e-22) differs from the average normal (-0.043619388 -0.99904822 2.3351852e-22) by 1.7584971e-15
Either correct the patch or split it into planar parts
--> FOAM Warning : 
    From function virtual void Foam::wedgePolyPatch::calcGeometry(Foam::PstreamBuffers&)
    in file meshes/polyMesh/polyPatches/constraint/wedge/wedgePolyPatch.C at line 69
    Wedge patch 'LeftWedge' is not planar.
At local face at (0.011257869 -0.00049152919 1.2075) the normal (-0.04361943 -0.99904822 -5.2235259e-22) differs from the average normal (-0.043619388 -0.99904822 2.3351852e-22) by 1.7584971e-15
Either correct the patch or split it into planar parts
--> FOAM Warning : 
    From function virtual void Foam::wedgePolyPatch::calcGeometry(Foam::PstreamBuffers&)
    in file meshes/polyMesh/polyPatches/constraint/wedge/wedgePolyPatch.C at line 69
    Wedge patch 'LeftWedge' is not planar.
At local face at (0.011257869 -0.00049152919 1.2225) the normal (-0.04361943 -0.99904822 -5.2235259e-22) differs from the average normal (-0.043619388 -0.99904822 2.3351852e-22) by 1.7584971e-15
Either correct the patch or split it into planar parts
--> FOAM Warning : 
    From function virtual void Foam::wedgePolyPatch::calcGeometry(Foam::PstreamBuffers&)
    in file meshes/polyMesh/polyPatches/constraint/wedge/wedgePolyPatch.C at line 69
    Wedge patch 'LeftWedge' is not planar.
At local face at (0.011257869 -0.00049152919 1.2375) the normal (-0.04361943 -0.99904822 -5.2235259e-22) differs from the average normal (-0.043619388 -0.99904822 2.3351852e-22) by 1.7584971e-15
Either correct the patch or split it into planar parts
--> FOAM Warning : 
    From function virtual void Foam::wedgePolyPatch::calcGeometry(Foam::PstreamBuffers&)
    in file meshes/polyMesh/polyPatches/constraint/wedge/wedgePolyPatch.C at line 69
    Wedge patch 'LeftWedge' is not planar.
At local face at (0.011257869 -0.00049152919 1.2525) the normal (-0.04361943 -0.99904822 -5.2235259e-22) differs from the average normal (-0.043619388 -0.99904822 2.3351852e-22) by 1.7584971e-15
Either correct the patch or split it into planar parts
--> FOAM Warning : 
    From function virtual void Foam::wedgePolyPatch::calcGeometry(Foam::PstreamBuffers&)
    in file meshes/polyMesh/polyPatches/constraint/wedge/wedgePolyPatch.C at line 69
    Wedge patch 'LeftWedge' is not planar.
At local face at (0.011257869 -0.00049152919 1.2675) the normal (-0.04361943 -0.99904822 -5.2235259e-22) differs from the average normal (-0.043619388 -0.99904822 2.3351852e-22) by 1.7584971e-15
Either correct the patch or split it into planar parts
--> FOAM Warning : 
    From function virtual void Foam::wedgePolyPatch::calcGeometry(Foam::PstreamBuffers&)
    in file meshes/polyMesh/polyPatches/constraint/wedge/wedgePolyPatch.C at line 69
    Wedge patch 'LeftWedge' is not planar.
At local face at (0.011257869 -0.00049152919 1.2825) the normal (-0.04361943 -0.99904822 -5.2235259e-22) differs from the average normal (-0.043619388 -0.99904822 2.3351852e-22) by 1.7584971e-15
Either correct the patch or split it into planar parts
--> FOAM Warning : 
    From function virtual void Foam::wedgePolyPatch::calcGeometry(Foam::PstreamBuffers&)
    in file meshes/polyMesh/polyPatches/constraint/wedge/wedgePolyPatch.C at line 69
    Wedge patch 'LeftWedge' is not planar.
At local face at (0.011257869 -0.00049152919 1.2975) the normal (-0.04361943 -0.99904822 -5.2235259e-22) differs from the average normal (-0.043619388 -0.99904822 2.3351852e-22) by 1.7584971e-15
Either correct the patch or split it into planar parts
--> FOAM Warning : 
    From function virtual void Foam::wedgePolyPatch::calcGeometry(Foam::PstreamBuffers&)
    in file meshes/polyMesh/polyPatches/constraint/wedge/wedgePolyPatch.C at line 69
    Wedge patch 'LeftWedge' is not planar.
At local face at (0.011257869 -0.00049152919 1.3125) the normal (-0.04361943 -0.99904822 -5.2235259e-22) differs from the average normal (-0.043619388 -0.99904822 2.3351852e-22) by 1.7584971e-15
Either correct the patch or split it into planar parts
--> FOAM Warning : 
    From function virtual void Foam::wedgePolyPatch::calcGeometry(Foam::PstreamBuffers&)
    in file meshes/polyMesh/polyPatches/constraint/wedge/wedgePolyPatch.C at line 69
    Wedge patch 'LeftWedge' is not planar.
At local face at (0.011257869 -0.00049152919 1.3275) the normal (-0.04361943 -0.99904822 -5.2235259e-22) differs from the average normal (-0.043619388 -0.99904822 2.3351852e-22) by 1.7584971e-15
Either correct the patch or split it into planar parts
--> FOAM Warning : 
    From function virtual void Foam::wedgePolyPatch::calcGeometry(Foam::PstreamBuffers&)
    in file meshes/polyMesh/polyPatches/constraint/wedge/wedgePolyPatch.C at line 69
    Wedge patch 'LeftWedge' is not planar.
At local face at (0.011257869 -0.00049152919 1.3425) the normal (-0.04361943 -0.99904822 -5.2235259e-22) differs from the average normal (-0.043619388 -0.99904822 2.3351852e-22) by 1.7584971e-15
Either correct the patch or split it into planar parts
--> FOAM Warning : 
    From function virtual void Foam::wedgePolyPatch::calcGeometry(Foam::PstreamBuffers&)
    in file meshes/polyMesh/polyPatches/constraint/wedge/wedgePolyPatch.C at line 69
    Wedge patch 'LeftWedge' is not planar.
At local face at (0.011257869 -0.00049152919 1.3575) the normal (-0.04361943 -0.99904822 -5.2235259e-22) differs from the average normal (-0.043619388 -0.99904822 2.3351852e-22) by 1.7584971e-15
Either correct the patch or split it into planar parts
--> FOAM Warning : 
    From function virtual void Foam::wedgePolyPatch::calcGeometry(Foam::PstreamBuffers&)
    in file meshes/polyMesh/polyPatches/constraint/wedge/wedgePolyPatch.C at line 69
    Wedge patch 'LeftWedge' is not planar.
At local face at (0.011257869 -0.00049152919 1.3725) the normal (-0.04361943 -0.99904822 -5.2235259e-22) differs from the average normal (-0.043619388 -0.99904822 2.3351852e-22) by 1.7584971e-15
Either correct the patch or split it into planar parts
--> FOAM Warning : 
    From function virtual void Foam::wedgePolyPatch::calcGeometry(Foam::PstreamBuffers&)
    in file meshes/polyMesh/polyPatches/constraint/wedge/wedgePolyPatch.C at line 69
    Wedge patch 'LeftWedge' is not planar.
At local face at (0.011257869 -0.00049152919 1.3875) the normal (-0.04361943 -0.99904822 -5.2235259e-22) differs from the average normal (-0.043619388 -0.99904822 2.3351852e-22) by 1.7584971e-15
Either correct the patch or split it into planar parts
--> FOAM Warning : 
    From function virtual void Foam::wedgePolyPatch::calcGeometry(Foam::PstreamBuffers&)
    in file meshes/polyMesh/polyPatches/constraint/wedge/wedgePolyPatch.C at line 69
    Wedge patch 'LeftWedge' is not planar.
At local face at (0.011257869 -0.00049152919 1.4025) the normal (-0.04361943 -0.99904822 -5.2235259e-22) differs from the average normal (-0.043619388 -0.99904822 2.3351852e-22) by 1.7584971e-15
Either correct the patch or split it into planar parts
--> FOAM Warning : 
    From function virtual void Foam::wedgePolyPatch::calcGeometry(Foam::PstreamBuffers&)
    in file meshes/polyMesh/polyPatches/constraint/wedge/wedgePolyPatch.C at line 69
    Wedge patch 'LeftWedge' is not planar.
At local face at (0.011257869 -0.00049152919 1.4175) the normal (-0.04361943 -0.99904822 -5.2235259e-22) differs from the average normal (-0.043619388 -0.99904822 2.3351852e-22) by 1.7584971e-15
Either correct the patch or split it into planar parts
--> FOAM Warning : 
    From function virtual void Foam::wedgePolyPatch::calcGeometry(Foam::PstreamBuffers&)
    in file meshes/polyMesh/polyPatches/constraint/wedge/wedgePolyPatch.C at line 69
    Wedge patch 'LeftWedge' is not planar.
At local face at (0.011257869 -0.00049152919 1.4325) the normal (-0.04361943 -0.99904822 -5.2235259e-22) differs from the average normal (-0.043619388 -0.99904822 2.3351852e-22) by 1.7584971e-15
Either correct the patch or split it into planar parts
--> FOAM Warning : 
    From function virtual void Foam::wedgePolyPatch::calcGeometry(Foam::PstreamBuffers&)
    in file meshes/polyMesh/polyPatches/constraint/wedge/wedgePolyPatch.C at line 69
    Wedge patch 'LeftWedge' is not planar.
At local face at (0.011257869 -0.00049152919 1.4475) the normal (-0.04361943 -0.99904822 -5.2235259e-22) differs from the average normal (-0.043619388 -0.99904822 2.3351852e-22) by 1.7584971e-15
Either correct the patch or split it into planar parts
--> FOAM Warning : 
    From function virtual void Foam::wedgePolyPatch::calcGeometry(Foam::PstreamBuffers&)
    in file meshes/polyMesh/polyPatches/constraint/wedge/wedgePolyPatch.C at line 69
    Wedge patch 'LeftWedge' is not planar.
At local face at (0.011257869 -0.00049152919 1.4625) the normal (-0.04361943 -0.99904822 -5.2235259e-22) differs from the average normal (-0.043619388 -0.99904822 2.3351852e-22) by 1.7584971e-15
Either correct the patch or split it into planar parts
--> FOAM Warning : 
    From function virtual void Foam::wedgePolyPatch::calcGeometry(Foam::PstreamBuffers&)
    in file meshes/polyMesh/polyPatches/constraint/wedge/wedgePolyPatch.C at line 69
    Wedge patch 'LeftWedge' is not planar.
At local face at (0.011257869 -0.00049152919 1.4775) the normal (-0.04361943 -0.99904822 -5.2235259e-22) differs from the average normal (-0.043619388 -0.99904822 2.3351852e-22) by 1.7584971e-15
Either correct the patch or split it into planar parts
--> FOAM Warning : 
    From function virtual void Foam::wedgePolyPatch::calcGeometry(Foam::PstreamBuffers&)
    in file meshes/polyMesh/polyPatches/constraint/wedge/wedgePolyPatch.C at line 69
    Wedge patch 'LeftWedge' is not planar.
At local face at (0.011257869 -0.00049152919 1.4925) the normal (-0.04361943 -0.99904822 -5.2235259e-22) differs from the average normal (-0.043619388 -0.99904822 2.3351852e-22) by 1.7584971e-15
Either correct the patch or split it into planar parts
--> FOAM Warning : 
    From function virtual void Foam::wedgePolyPatch::calcGeometry(Foam::PstreamBuffers&)
    in file meshes/polyMesh/polyPatches/constraint/wedge/wedgePolyPatch.C at line 69
    Wedge patch 'LeftWedge' is not planar.
At local face at (0.011264018 -0.00049179765 0.0075) the normal (-0.043619344 -0.99904822 0) differs from the average normal (-0.043619388 -0.99904822 2.3351852e-22) by 1.8781821e-15
Either correct the patch or split it into planar parts
--> FOAM Warning : 
    From function virtual void Foam::wedgePolyPatch::calcGeometry(Foam::PstreamBuffers&)
    in file meshes/polyMesh/polyPatches/constraint/wedge/wedgePolyPatch.C at line 69
    Wedge patch 'LeftWedge' is not planar.
At local face at (0.011264018 -0.00049179765 0.0225) the normal (-0.043619344 -0.99904822 0) differs from the average normal (-0.043619388 -0.99904822 2.3351852e-22) by 1.8781821e-15
Either correct the patch or split it into planar parts
--> FOAM Warning : 
    From function virtual void Foam::wedgePolyPatch::calcGeometry(Foam::PstreamBuffers&)
    in file meshes/polyMesh/polyPatches/constraint/wedge/wedgePolyPatch.C at line 69
    Wedge patch 'LeftWedge' is not planar.
At local face at (0.011264018 -0.00049179765 0.0375) the normal (-0.043619344 -0.99904822 0) differs from the average normal (-0.043619388 -0.99904822 2.3351852e-22) by 1.8781821e-15
Either correct the patch or split it into planar parts
--> FOAM Warning : 
    From function virtual void Foam::wedgePolyPatch::calcGeometry(Foam::PstreamBuffers&)
    in file meshes/polyMesh/polyPatches/constraint/wedge/wedgePolyPatch.C at line 69
    Wedge patch 'LeftWedge' is not planar.
At local face at (0.011264018 -0.00049179765 0.0525) the normal (-0.043619344 -0.99904822 0) differs from the average normal (-0.043619388 -0.99904822 2.3351852e-22) by 1.8781821e-15
Either correct the patch or split it into planar parts
--> FOAM Warning : 
    From function virtual void Foam::wedgePolyPatch::calcGeometry(Foam::PstreamBuffers&)
    in file meshes/polyMesh/polyPatches/constraint/wedge/wedgePolyPatch.C at line 69
    Wedge patch 'LeftWedge' is not planar.
At local face at (0.011264018 -0.00049179765 0.0675) the normal (-0.043619344 -0.99904822 0) differs from the average normal (-0.043619388 -0.99904822 2.3351852e-22) by 1.8781821e-15
Either correct the patch or split it into planar parts
--> FOAM Warning : 
    From function virtual void Foam::wedgePolyPatch::calcGeometry(Foam::PstreamBuffers&)
    in file meshes/polyMesh/polyPatches/constraint/wedge/wedgePolyPatch.C at line 69
    Wedge patch 'LeftWedge' is not planar.
At local face at (0.011264018 -0.00049179764 0.0825) the normal (-0.043619344 -0.99904822 0) differs from the average normal (-0.043619388 -0.99904822 2.3351852e-22) by 1.8781821e-15
Either correct the patch or split it into planar parts
--> FOAM Warning : 
    From function virtual void Foam::wedgePolyPatch::calcGeometry(Foam::PstreamBuffers&)
    in file meshes/polyMesh/polyPatches/constraint/wedge/wedgePolyPatch.C at line 69
    Wedge patch 'LeftWedge' is not planar.
At local face at (0.011264018 -0.00049179764 0.0975) the normal (-0.043619344 -0.99904822 0) differs from the average normal (-0.043619388 -0.99904822 2.3351852e-22) by 1.8781821e-15
Either correct the patch or split it into planar parts
--> FOAM Warning : 
    From function virtual void Foam::wedgePolyPatch::calcGeometry(Foam::PstreamBuffers&)
    in file meshes/polyMesh/polyPatches/constraint/wedge/wedgePolyPatch.C at line 69
    Wedge patch 'LeftWedge' is not planar.
At local face at (0.011264018 -0.00049179764 0.1125) the normal (-0.043619344 -0.99904822 0) differs from the average normal (-0.043619388 -0.99904822 2.3351852e-22) by 1.8781821e-15
Either correct the patch or split it into planar parts
--> FOAM Warning : 
    From function virtual void Foam::wedgePolyPatch::calcGeometry(Foam::PstreamBuffers&)
    in file meshes/polyMesh/polyPatches/constraint/wedge/wedgePolyPatch.C at line 69
    Wedge patch 'LeftWedge' is not planar.
At local face at (0.011264018 -0.00049179765 0.1275) the normal (-0.043619344 -0.99904822 0) differs from the average normal (-0.043619388 -0.99904822 2.3351852e-22) by 1.8781821e-15
Either correct the patch or split it into planar parts
--> FOAM Warning : 
    From function virtual void Foam::wedgePolyPatch::calcGeometry(Foam::PstreamBuffers&)
    in file meshes/polyMesh/polyPatches/constraint/wedge/wedgePolyPatch.C at line 69
    Wedge patch 'LeftWedge' is not planar.
At local face at (0.011264018 -0.00049179764 0.1425) the normal (-0.043619344 -0.99904822 0) differs from the average normal (-0.043619388 -0.99904822 2.3351852e-22) by 1.8781821e-15
Either correct the patch or split it into planar parts
--> FOAM Warning : 
    From function virtual void Foam::wedgePolyPatch::calcGeometry(Foam::PstreamBuffers&)
    in file meshes/polyMesh/polyPatches/constraint/wedge/wedgePolyPatch.C at line 69
    Wedge patch 'LeftWedge' is not planar.
At local face at (0.011264018 -0.00049179765 0.1575) the normal (-0.043619344 -0.99904822 0) differs from the average normal (-0.043619388 -0.99904822 2.3351852e-22) by 1.8781821e-15
Either correct the patch or split it into planar parts
--> FOAM Warning : 
    From function virtual void Foam::wedgePolyPatch::calcGeometry(Foam::PstreamBuffers&)
    in file meshes/polyMesh/polyPatches/constraint/wedge/wedgePolyPatch.C at line 69
    Wedge patch 'LeftWedge' is not planar.
At local face at (0.011264018 -0.00049179764 0.1725) the normal (-0.043619344 -0.99904822 0) differs from the average normal (-0.043619388 -0.99904822 2.3351852e-22) by 1.8781821e-15
Either correct the patch or split it into planar parts
--> FOAM Warning : 
    From function virtual void Foam::wedgePolyPatch::calcGeometry(Foam::PstreamBuffers&)
    in file meshes/polyMesh/polyPatches/constraint/wedge/wedgePolyPatch.C at line 69
    Wedge patch 'LeftWedge' is not planar.
At local face at (0.011264018 -0.00049179765 0.1875) the normal (-0.043619344 -0.99904822 0) differs from the average normal (-0.043619388 -0.99904822 2.3351852e-22) by 1.8781821e-15
Either correct the patch or split it into planar parts
--> FOAM Warning : 
    From function virtual void Foam::wedgePolyPatch::calcGeometry(Foam::PstreamBuffers&)
    in file meshes/polyMesh/polyPatches/constraint/wedge/wedgePolyPatch.C at line 69
    Wedge patch 'LeftWedge' is not planar.
At local face at (0.011264018 -0.00049179764 0.2025) the normal (-0.043619344 -0.99904822 0) differs from the average normal (-0.043619388 -0.99904822 2.3351852e-22) by 1.8781821e-15
Either correct the patch or split it into planar parts
--> FOAM Warning : 
    From function virtual void Foam::wedgePolyPatch::calcGeometry(Foam::PstreamBuffers&)
    in file meshes/polyMesh/polyPatches/constraint/wedge/wedgePolyPatch.C at line 69
    Wedge patch 'LeftWedge' is not planar.
At local face at (0.011264018 -0.00049179765 0.2175) the normal (-0.043619344 -0.99904822 0) differs from the average normal (-0.043619388 -0.99904822 2.3351852e-22) by 1.8781821e-15
Either correct the patch or split it into planar parts
--> FOAM Warning : 
    From function virtual void Foam::wedgePolyPatch::calcGeometry(Foam::PstreamBuffers&)
    in file meshes/polyMesh/polyPatches/constraint/wedge/wedgePolyPatch.C at line 69
    Wedge patch 'LeftWedge' is not planar.
At local face at (0.011264018 -0.00049179764 0.2325) the normal (-0.043619344 -0.99904822 0) differs from the average normal (-0.043619388 -0.99904822 2.3351852e-22) by 1.8781821e-15
Either correct the patch or split it into planar parts
--> FOAM Warning : 
    From function virtual void Foam::wedgePolyPatch::calcGeometry(Foam::PstreamBuffers&)
    in file meshes/polyMesh/polyPatches/constraint/wedge/wedgePolyPatch.C at line 69
    Wedge patch 'LeftWedge' is not planar.
At local face at (0.011264018 -0.00049179765 0.2475) the normal (-0.043619344 -0.99904822 0) differs from the average normal (-0.043619388 -0.99904822 2.3351852e-22) by 1.8781821e-15
Either correct the patch or split it into planar parts
--> FOAM Warning : 
    From function virtual void Foam::wedgePolyPatch::calcGeometry(Foam::PstreamBuffers&)
    in file meshes/polyMesh/polyPatches/constraint/wedge/wedgePolyPatch.C at line 69
    Wedge patch 'LeftWedge' is not planar.
At local face at (0.011264018 -0.00049179765 0.2625) the normal (-0.043619344 -0.99904822 0) differs from the average normal (-0.043619388 -0.99904822 2.3351852e-22) by 1.8781821e-15
Either correct the patch or split it into planar parts
--> FOAM Warning : 
    From function virtual void Foam::wedgePolyPatch::calcGeometry(Foam::PstreamBuffers&)
    in file meshes/polyMesh/polyPatches/constraint/wedge/wedgePolyPatch.C at line 69
    Wedge patch 'LeftWedge' is not planar.
At local face at (0.011264018 -0.00049179765 0.2775) the normal (-0.043619344 -0.99904822 0) differs from the average normal (-0.043619388 -0.99904822 2.3351852e-22) by 1.8781821e-15
Either correct the patch or split it into planar parts
--> FOAM Warning : 
    From function virtual void Foam::wedgePolyPatch::calcGeometry(Foam::PstreamBuffers&)
    in file meshes/polyMesh/polyPatches/constraint/wedge/wedgePolyPatch.C at line 69
    Wedge patch 'LeftWedge' is not planar.
At local face at (0.011264018 -0.00049179765 0.2925) the normal (-0.043619344 -0.99904822 0) differs from the average normal (-0.043619388 -0.99904822 2.3351852e-22) by 1.8781821e-15
Either correct the patch or split it into planar parts
--> FOAM Warning : 
    From function virtual void Foam::wedgePolyPatch::calcGeometry(Foam::PstreamBuffers&)
    in file meshes/polyMesh/polyPatches/constraint/wedge/wedgePolyPatch.C at line 69
    Wedge patch 'LeftWedge' is not planar.
At local face at (0.011264018 -0.00049179765 0.3075) the normal (-0.043619344 -0.99904822 0) differs from the average normal (-0.043619388 -0.99904822 2.3351852e-22) by 1.8781821e-15
Either correct the patch or split it into planar parts
--> FOAM Warning : 
    From function virtual void Foam::wedgePolyPatch::calcGeometry(Foam::PstreamBuffers&)
    in file meshes/polyMesh/polyPatches/constraint/wedge/wedgePolyPatch.C at line 69
    Wedge patch 'LeftWedge' is not planar.
At local face at (0.011264018 -0.00049179765 0.3225) the normal (-0.043619344 -0.99904822 0) differs from the average normal (-0.043619388 -0.99904822 2.3351852e-22) by 1.8781821e-15
Either correct the patch or split it into planar parts
--> FOAM Warning : 
    From function virtual void Foam::wedgePolyPatch::calcGeometry(Foam::PstreamBuffers&)
    in file meshes/polyMesh/polyPatches/constraint/wedge/wedgePolyPatch.C at line 69
    Wedge patch 'LeftWedge' is not planar.
At local face at (0.011264018 -0.00049179765 0.3375) the normal (-0.043619344 -0.99904822 0) differs from the average normal (-0.043619388 -0.99904822 2.3351852e-22) by 1.8781821e-15
Either correct the patch or split it into planar parts
--> FOAM Warning : 
    From function virtual void Foam::wedgePolyPatch::calcGeometry(Foam::PstreamBuffers&)
    in file meshes/polyMesh/polyPatches/constraint/wedge/wedgePolyPatch.C at line 69
    Wedge patch 'LeftWedge' is not planar.
At local face at (0.011264018 -0.00049179765 0.3525) the normal (-0.043619344 -0.99904822 0) differs from the average normal (-0.043619388 -0.99904822 2.3351852e-22) by 1.8781821e-15
Either correct the patch or split it into planar parts
--> FOAM Warning : 
    From function virtual void Foam::wedgePolyPatch::calcGeometry(Foam::PstreamBuffers&)
    in file meshes/polyMesh/polyPatches/constraint/wedge/wedgePolyPatch.C at line 69
    Wedge patch 'LeftWedge' is not planar.
At local face at (0.011264018 -0.00049179765 0.3675) the normal (-0.043619344 -0.99904822 0) differs from the average normal (-0.043619388 -0.99904822 2.3351852e-22) by 1.8781821e-15
Either correct the patch or split it into planar parts
--> FOAM Warning : 
    From function virtual void Foam::wedgePolyPatch::calcGeometry(Foam::PstreamBuffers&)
    in file meshes/polyMesh/polyPatches/constraint/wedge/wedgePolyPatch.C at line 69
    Wedge patch 'LeftWedge' is not planar.
At local face at (0.011264018 -0.00049179765 0.3825) the normal (-0.043619344 -0.99904822 0) differs from the average normal (-0.043619388 -0.99904822 2.3351852e-22) by 1.8781821e-15
Either correct the patch or split it into planar parts
--> FOAM Warning : 
    From function virtual void Foam::wedgePolyPatch::calcGeometry(Foam::PstreamBuffers&)
    in file meshes/polyMesh/polyPatches/constraint/wedge/wedgePolyPatch.C at line 69
    Wedge patch 'LeftWedge' is not planar.
At local face at (0.011264018 -0.00049179765 0.3975) the normal (-0.043619344 -0.99904822 0) differs from the average normal (-0.043619388 -0.99904822 2.3351852e-22) by 1.8781821e-15
Either correct the patch or split it into planar parts
--> FOAM Warning : 
    From function virtual void Foam::wedgePolyPatch::calcGeometry(Foam::PstreamBuffers&)
    in file meshes/polyMesh/polyPatches/constraint/wedge/wedgePolyPatch.C at line 69
    Wedge patch 'LeftWedge' is not planar.
At local face at (0.011264018 -0.00049179765 0.4125) the normal (-0.043619344 -0.99904822 0) differs from the average normal (-0.043619388 -0.99904822 2.3351852e-22) by 1.8781821e-15
Either correct the patch or split it into planar parts
--> FOAM Warning : 
    From function virtual void Foam::wedgePolyPatch::calcGeometry(Foam::PstreamBuffers&)
    in file meshes/polyMesh/polyPatches/constraint/wedge/wedgePolyPatch.C at line 69
    Wedge patch 'LeftWedge' is not planar.
At local face at (0.011264018 -0.00049179765 0.4275) the normal (-0.043619344 -0.99904822 0) differs from the average normal (-0.043619388 -0.99904822 2.3351852e-22) by 1.8781821e-15
Either correct the patch or split it into planar parts
--> FOAM Warning : 
    From function virtual void Foam::wedgePolyPatch::calcGeometry(Foam::PstreamBuffers&)
    in file meshes/polyMesh/polyPatches/constraint/wedge/wedgePolyPatch.C at line 69
    Wedge patch 'LeftWedge' is not planar.
At local face at (0.011264018 -0.00049179765 0.4425) the normal (-0.043619344 -0.99904822 0) differs from the average normal (-0.043619388 -0.99904822 2.3351852e-22) by 1.8781821e-15
Either correct the patch or split it into planar parts
--> FOAM Warning : 
    From function virtual void Foam::wedgePolyPatch::calcGeometry(Foam::PstreamBuffers&)
    in file meshes/polyMesh/polyPatches/constraint/wedge/wedgePolyPatch.C at line 69
    Wedge patch 'LeftWedge' is not planar.
At local face at (0.011264018 -0.00049179765 0.4575) the normal (-0.043619344 -0.99904822 0) differs from the average normal (-0.043619388 -0.99904822 2.3351852e-22) by 1.8781821e-15
Either correct the patch or split it into planar parts
--> FOAM Warning : 
    From function virtual void Foam::wedgePolyPatch::calcGeometry(Foam::PstreamBuffers&)
    in file meshes/polyMesh/polyPatches/constraint/wedge/wedgePolyPatch.C at line 69
    Wedge patch 'LeftWedge' is not planar.
At local face at (0.011264018 -0.00049179765 0.4725) the normal (-0.043619344 -0.99904822 0) differs from the average normal (-0.043619388 -0.99904822 2.3351852e-22) by 1.8781821e-15
Either correct the patch or split it into planar parts
--> FOAM Warning : 
    From function virtual void Foam::wedgePolyPatch::calcGeometry(Foam::PstreamBuffers&)
    in file meshes/polyMesh/polyPatches/constraint/wedge/wedgePolyPatch.C at line 69
    Wedge patch 'LeftWedge' is not planar.
At local face at (0.011264018 -0.00049179765 0.4875) the normal (-0.043619344 -0.99904822 0) differs from the average normal (-0.043619388 -0.99904822 2.3351852e-22) by 1.8781821e-15
Either correct the patch or split it into planar parts
--> FOAM Warning : 
    From function virtual void Foam::wedgePolyPatch::calcGeometry(Foam::PstreamBuffers&)
    in file meshes/polyMesh/polyPatches/constraint/wedge/wedgePolyPatch.C at line 69
    Wedge patch 'LeftWedge' is not planar.
At local face at (0.011264018 -0.00049179765 0.5025) the normal (-0.043619344 -0.99904822 0) differs from the average normal (-0.043619388 -0.99904822 2.3351852e-22) by 1.8781821e-15
Either correct the patch or split it into planar parts
--> FOAM Warning : 
    From function virtual void Foam::wedgePolyPatch::calcGeometry(Foam::PstreamBuffers&)
    in file meshes/polyMesh/polyPatches/constraint/wedge/wedgePolyPatch.C at line 69
    Wedge patch 'LeftWedge' is not planar.
At local face at (0.011264018 -0.00049179765 0.5175) the normal (-0.043619344 -0.99904822 0) differs from the average normal (-0.043619388 -0.99904822 2.3351852e-22) by 1.8781821e-15
Either correct the patch or split it into planar parts
--> FOAM Warning : 
    From function virtual void Foam::wedgePolyPatch::calcGeometry(Foam::PstreamBuffers&)
    in file meshes/polyMesh/polyPatches/constraint/wedge/wedgePolyPatch.C at line 69
    Wedge patch 'LeftWedge' is not planar.
At local face at (0.011264018 -0.00049179765 0.5325) the normal (-0.043619344 -0.99904822 0) differs from the average normal (-0.043619388 -0.99904822 2.3351852e-22) by 1.8781821e-15
Either correct the patch or split it into planar parts
--> FOAM Warning : 
    From function virtual void Foam::wedgePolyPatch::calcGeometry(Foam::PstreamBuffers&)
    in file meshes/polyMesh/polyPatches/constraint/wedge/wedgePolyPatch.C at line 69
    Wedge patch 'LeftWedge' is not planar.
At local face at (0.011264018 -0.00049179765 0.5475) the normal (-0.043619344 -0.99904822 0) differs from the average normal (-0.043619388 -0.99904822 2.3351852e-22) by 1.8781821e-15
Either correct the patch or split it into planar parts
--> FOAM Warning : 
    From function virtual void Foam::wedgePolyPatch::calcGeometry(Foam::PstreamBuffers&)
    in file meshes/polyMesh/polyPatches/constraint/wedge/wedgePolyPatch.C at line 69
    Wedge patch 'LeftWedge' is not planar.
At local face at (0.011264018 -0.00049179765 0.5625) the normal (-0.043619344 -0.99904822 0) differs from the average normal (-0.043619388 -0.99904822 2.3351852e-22) by 1.8781821e-15
Either correct the patch or split it into planar parts
--> FOAM Warning : 
    From function virtual void Foam::wedgePolyPatch::calcGeometry(Foam::PstreamBuffers&)
    in file meshes/polyMesh/polyPatches/constraint/wedge/wedgePolyPatch.C at line 69
    Wedge patch 'LeftWedge' is not planar.
At local face at (0.011264018 -0.00049179765 0.5775) the normal (-0.043619344 -0.99904822 0) differs from the average normal (-0.043619388 -0.99904822 2.3351852e-22) by 1.8781821e-15
Either correct the patch or split it into planar parts
--> FOAM Warning : 
    From function virtual void Foam::wedgePolyPatch::calcGeometry(Foam::PstreamBuffers&)
    in file meshes/polyMesh/polyPatches/constraint/wedge/wedgePolyPatch.C at line 69
    Wedge patch 'LeftWedge' is not planar.
At local face at (0.011264018 -0.00049179765 0.5925) the normal (-0.043619344 -0.99904822 0) differs from the average normal (-0.043619388 -0.99904822 2.3351852e-22) by 1.8781821e-15
Either correct the patch or split it into planar parts
--> FOAM Warning : 
    From function virtual void Foam::wedgePolyPatch::calcGeometry(Foam::PstreamBuffers&)
    in file meshes/polyMesh/polyPatches/constraint/wedge/wedgePolyPatch.C at line 69
    Wedge patch 'LeftWedge' is not planar.
At local face at (0.011264018 -0.00049179765 0.6075) the normal (-0.043619344 -0.99904822 0) differs from the average normal (-0.043619388 -0.99904822 2.3351852e-22) by 1.8781821e-15
Either correct the patch or split it into planar parts
--> FOAM Warning : 
    From function virtual void Foam::wedgePolyPatch::calcGeometry(Foam::PstreamBuffers&)
    in file meshes/polyMesh/polyPatches/constraint/wedge/wedgePolyPatch.C at line 69
    Wedge patch 'LeftWedge' is not planar.
At local face at (0.011264018 -0.00049179765 0.6225) the normal (-0.043619344 -0.99904822 0) differs from the average normal (-0.043619388 -0.99904822 2.3351852e-22) by 1.8781821e-15
Either correct the patch or split it into planar parts
--> FOAM Warning : 
    From function virtual void Foam::wedgePolyPatch::calcGeometry(Foam::PstreamBuffers&)
    in file meshes/polyMesh/polyPatches/constraint/wedge/wedgePolyPatch.C at line 69
    Wedge patch 'LeftWedge' is not planar.
At local face at (0.011264018 -0.00049179765 0.6375) the normal (-0.043619344 -0.99904822 0) differs from the average normal (-0.043619388 -0.99904822 2.3351852e-22) by 1.8781821e-15
Either correct the patch or split it into planar parts
--> FOAM Warning : 
    From function virtual void Foam::wedgePolyPatch::calcGeometry(Foam::PstreamBuffers&)
    in file meshes/polyMesh/polyPatches/constraint/wedge/wedgePolyPatch.C at line 69
    Wedge patch 'LeftWedge' is not planar.
At local face at (0.011264018 -0.00049179765 0.6525) the normal (-0.043619344 -0.99904822 0) differs from the average normal (-0.043619388 -0.99904822 2.3351852e-22) by 1.8781821e-15
Either correct the patch or split it into planar parts
--> FOAM Warning : 
    From function virtual void Foam::wedgePolyPatch::calcGeometry(Foam::PstreamBuffers&)
    in file meshes/polyMesh/polyPatches/constraint/wedge/wedgePolyPatch.C at line 69
    Wedge patch 'LeftWedge' is not planar.
At local face at (0.011264018 -0.00049179765 0.6675) the normal (-0.043619344 -0.99904822 0) differs from the average normal (-0.043619388 -0.99904822 2.3351852e-22) by 1.8781821e-15
Either correct the patch or split it into planar parts
--> FOAM Warning : 
    From function virtual void Foam::wedgePolyPatch::calcGeometry(Foam::PstreamBuffers&)
    in file meshes/polyMesh/polyPatches/constraint/wedge/wedgePolyPatch.C at line 69
    Wedge patch 'LeftWedge' is not planar.
At local face at (0.011264018 -0.00049179765 0.6825) the normal (-0.043619344 -0.99904822 0) differs from the average normal (-0.043619388 -0.99904822 2.3351852e-22) by 1.8781821e-15
Either correct the patch or split it into planar parts
--> FOAM Warning : 
    From function virtual void Foam::wedgePolyPatch::calcGeometry(Foam::PstreamBuffers&)
    in file meshes/polyMesh/polyPatches/constraint/wedge/wedgePolyPatch.C at line 69
    Wedge patch 'LeftWedge' is not planar.
At local face at (0.011264018 -0.00049179765 0.6975) the normal (-0.043619344 -0.99904822 0) differs from the average normal (-0.043619388 -0.99904822 2.3351852e-22) by 1.8781821e-15
Either correct the patch or split it into planar parts
--> FOAM Warning : 
    From function virtual void Foam::wedgePolyPatch::calcGeometry(Foam::PstreamBuffers&)
    in file meshes/polyMesh/polyPatches/constraint/wedge/wedgePolyPatch.C at line 69
    Wedge patch 'LeftWedge' is not planar.
At local face at (0.011264018 -0.00049179765 0.7125) the normal (-0.043619344 -0.99904822 0) differs from the average normal (-0.043619388 -0.99904822 2.3351852e-22) by 1.8781821e-15
Either correct the patch or split it into planar parts
--> FOAM Warning : 
    From function virtual void Foam::wedgePolyPatch::calcGeometry(Foam::PstreamBuffers&)
    in file meshes/polyMesh/polyPatches/constraint/wedge/wedgePolyPatch.C at line 69
    Wedge patch 'LeftWedge' is not planar.
At local face at (0.011264018 -0.00049179765 0.7275) the normal (-0.043619344 -0.99904822 0) differs from the average normal (-0.043619388 -0.99904822 2.3351852e-22) by 1.8781821e-15
Either correct the patch or split it into planar parts
--> FOAM Warning : 
    From function virtual void Foam::wedgePolyPatch::calcGeometry(Foam::PstreamBuffers&)
    in file meshes/polyMesh/polyPatches/constraint/wedge/wedgePolyPatch.C at line 69
    Wedge patch 'LeftWedge' is not planar.
At local face at (0.011264018 -0.00049179765 0.7425) the normal (-0.043619344 -0.99904822 0) differs from the average normal (-0.043619388 -0.99904822 2.3351852e-22) by 1.8781821e-15
Either correct the patch or split it into planar parts
--> FOAM Warning : 
    From function virtual void Foam::wedgePolyPatch::calcGeometry(Foam::PstreamBuffers&)
    in file meshes/polyMesh/polyPatches/constraint/wedge/wedgePolyPatch.C at line 69
    Wedge patch 'LeftWedge' is not planar.
At local face at (0.011264018 -0.00049179765 0.7575) the normal (-0.043619344 -0.99904822 0) differs from the average normal (-0.043619388 -0.99904822 2.3351852e-22) by 1.8781821e-15
Either correct the patch or split it into planar parts
--> FOAM Warning : 
    From function virtual void Foam::wedgePolyPatch::calcGeometry(Foam::PstreamBuffers&)
    in file meshes/polyMesh/polyPatches/constraint/wedge/wedgePolyPatch.C at line 69
    Wedge patch 'LeftWedge' is not planar.
At local face at (0.011264018 -0.00049179765 0.7725) the normal (-0.043619344 -0.99904822 0) differs from the average normal (-0.043619388 -0.99904822 2.3351852e-22) by 1.8781821e-15
Either correct the patch or split it into planar parts
--> FOAM Warning : 
    From function virtual void Foam::wedgePolyPatch::calcGeometry(Foam::PstreamBuffers&)
    in file meshes/polyMesh/polyPatches/constraint/wedge/wedgePolyPatch.C at line 69
    Wedge patch 'LeftWedge' is not planar.
At local face at (0.011264018 -0.00049179765 0.7875) the normal (-0.043619344 -0.99904822 0) differs from the average normal (-0.043619388 -0.99904822 2.3351852e-22) by 1.8781821e-15
Either correct the patch or split it into planar parts
--> FOAM Warning : 
    From function virtual void Foam::wedgePolyPatch::calcGeometry(Foam::PstreamBuffers&)
    in file meshes/polyMesh/polyPatches/constraint/wedge/wedgePolyPatch.C at line 69
    Wedge patch 'LeftWedge' is not planar.
At local face at (0.011264018 -0.00049179765 0.8025) the normal (-0.043619344 -0.99904822 0) differs from the average normal (-0.043619388 -0.99904822 2.3351852e-22) by 1.8781821e-15
Either correct the patch or split it into planar parts
--> FOAM Warning : 
    From function virtual void Foam::wedgePolyPatch::calcGeometry(Foam::PstreamBuffers&)
    in file meshes/polyMesh/polyPatches/constraint/wedge/wedgePolyPatch.C at line 69
    Wedge patch 'LeftWedge' is not planar.
At local face at (0.011264018 -0.00049179765 0.8175) the normal (-0.043619344 -0.99904822 0) differs from the average normal (-0.043619388 -0.99904822 2.3351852e-22) by 1.8781821e-15
Either correct the patch or split it into planar parts
--> FOAM Warning : 
    From function virtual void Foam::wedgePolyPatch::calcGeometry(Foam::PstreamBuffers&)
    in file meshes/polyMesh/polyPatches/constraint/wedge/wedgePolyPatch.C at line 69
    Wedge patch 'LeftWedge' is not planar.
At local face at (0.011264018 -0.00049179765 0.8325) the normal (-0.043619344 -0.99904822 0) differs from the average normal (-0.043619388 -0.99904822 2.3351852e-22) by 1.8781821e-15
Either correct the patch or split it into planar parts
--> FOAM Warning : 
    From function virtual void Foam::wedgePolyPatch::calcGeometry(Foam::PstreamBuffers&)
    in file meshes/polyMesh/polyPatches/constraint/wedge/wedgePolyPatch.C at line 69
    Wedge patch 'LeftWedge' is not planar.
At local face at (0.011264018 -0.00049179765 0.8475) the normal (-0.043619344 -0.99904822 0) differs from the average normal (-0.043619388 -0.99904822 2.3351852e-22) by 1.8781821e-15
Either correct the patch or split it into planar parts
--> FOAM Warning : 
    From function virtual void Foam::wedgePolyPatch::calcGeometry(Foam::PstreamBuffers&)
    in file meshes/polyMesh/polyPatches/constraint/wedge/wedgePolyPatch.C at line 69
    Wedge patch 'LeftWedge' is not planar.
At local face at (0.011264018 -0.00049179765 0.8625) the normal (-0.043619344 -0.99904822 0) differs from the average normal (-0.043619388 -0.99904822 2.3351852e-22) by 1.8781821e-15
Either correct the patch or split it into planar parts
--> FOAM Warning : 
    From function virtual void Foam::wedgePolyPatch::calcGeometry(Foam::PstreamBuffers&)
    in file meshes/polyMesh/polyPatches/constraint/wedge/wedgePolyPatch.C at line 69
    Wedge patch 'LeftWedge' is not planar.
At local face at (0.011264018 -0.00049179765 0.8775) the normal (-0.043619344 -0.99904822 0) differs from the average normal (-0.043619388 -0.99904822 2.3351852e-22) by 1.8781821e-15
Either correct the patch or split it into planar parts
--> FOAM Warning : 
    From function virtual void Foam::wedgePolyPatch::calcGeometry(Foam::PstreamBuffers&)
    in file meshes/polyMesh/polyPatches/constraint/wedge/wedgePolyPatch.C at line 69
    Wedge patch 'LeftWedge' is not planar.
At local face at (0.011264018 -0.00049179765 0.8925) the normal (-0.043619344 -0.99904822 0) differs from the average normal (-0.043619388 -0.99904822 2.3351852e-22) by 1.8781821e-15
Either correct the patch or split it into planar parts
--> FOAM Warning : 
    From function virtual void Foam::wedgePolyPatch::calcGeometry(Foam::PstreamBuffers&)
    in file meshes/polyMesh/polyPatches/constraint/wedge/wedgePolyPatch.C at line 69
    Wedge patch 'LeftWedge' is not planar.
At local face at (0.011264018 -0.00049179765 0.9075) the normal (-0.043619344 -0.99904822 0) differs from the average normal (-0.043619388 -0.99904822 2.3351852e-22) by 1.8781821e-15
Either correct the patch or split it into planar parts
--> FOAM Warning : 
    From function virtual void Foam::wedgePolyPatch::calcGeometry(Foam::PstreamBuffers&)
    in file meshes/polyMesh/polyPatches/constraint/wedge/wedgePolyPatch.C at line 69
    Wedge patch 'LeftWedge' is not planar.
At local face at (0.011264018 -0.00049179765 0.9225) the normal (-0.043619344 -0.99904822 0) differs from the average normal (-0.043619388 -0.99904822 2.3351852e-22) by 1.8781821e-15
Either correct the patch or split it into planar parts
--> FOAM Warning : 
    From function virtual void Foam::wedgePolyPatch::calcGeometry(Foam::PstreamBuffers&)
    in file meshes/polyMesh/polyPatches/constraint/wedge/wedgePolyPatch.C at line 69
    Wedge patch 'LeftWedge' is not planar.
At local face at (0.011264018 -0.00049179765 0.9375) the normal (-0.043619344 -0.99904822 0) differs from the average normal (-0.043619388 -0.99904822 2.3351852e-22) by 1.8781821e-15
Either correct the patch or split it into planar parts
--> FOAM Warning : 
    From function virtual void Foam::wedgePolyPatch::calcGeometry(Foam::PstreamBuffers&)
    in file meshes/polyMesh/polyPatches/constraint/wedge/wedgePolyPatch.C at line 69
    Wedge patch 'LeftWedge' is not planar.
[...]
Outflow     : -9.1891826e-08 [kg/s]
EnergyInflow  : -0.027208477 [W]
EnergyOutflow : -0.027150561 [W]
rho max/avg/min : 1.1994584 1.1759525 1.1467372
T   max/avg/min : 307.76295 300.18677 294.18482
P   max/avg/min : 101324.91 101316.34 101299.97
Prg max/avg/min : 101325.83 101324.99 101316.6
U   max/avg/min : 0.0020949572 -0.0053548039 -0.026389134
Prg max-min : 9.23388
 
Iteration Number = 4127

DILUPBiCG:  Solving for Ux, Initial residual = 0.8766418, Final residual = 0.00018862276, No Iterations 1
DILUPBiCG:  Solving for Uy, Initial residual = 0.0053665362, Final residual = 6.7714259e-07, No Iterations 1
DILUPBiCG:  Solving for Uz, Initial residual = 0.0010015428, Final residual = 2.0539825e-07, No Iterations 1
DILUPBiCG:  Solving for h, Initial residual = 0.00028491276, Final residual = 6.4588991e-07, No Iterations 1
GAMG:  Solving for p_rgh, Initial residual = 0.04921462, Final residual = 6.7973662e-06, No Iterations 2
time step continuity errors : sum local = 0.00029087975, global = -1.3310602e-05, cumulative = -0.0013886178
ExecutionTime = 82.13 s  ClockTime = 82 s
Inflow      : -9.2233457e-08 [kg/s]
Outflow     : -9.2335625e-08 [kg/s]
EnergyInflow  : -0.0272515 [W]
EnergyOutflow : -0.027289724 [W]
rho max/avg/min : 1.1994636 1.1759322 1.1466991
T   max/avg/min : 307.77316 300.19195 294.18552
P   max/avg/min : 101324.91 101316.38 101307.47
Prg max/avg/min : 101332.72 101325.03 101324.62
U   max/avg/min : 0.0020962619 -0.0053637035 -0.026457113
Prg max-min : 8.1029817
 
Iteration Number = 4128

DILUPBiCG:  Solving for Ux, Initial residual = 0.8116874, Final residual = 0.00017816997, No Iterations 1
DILUPBiCG:  Solving for Uy, Initial residual = 0.0054431802, Final residual = 6.8925744e-07, No Iterations 1
DILUPBiCG:  Solving for Uz, Initial residual = 0.00099870871, Final residual = 2.005085e-07, No Iterations 1
DILUPBiCG:  Solving for h, Initial residual = 0.00028466362, Final residual = 5.1640335e-07, No Iterations 1
GAMG:  Solving for p_rgh, Initial residual = 0.052067504, Final residual = 6.8546768e-06, No Iterations 2
time step continuity errors : sum local = 0.00029330676, global = 2.353215e-05, cumulative = -0.0013650856
ExecutionTime = 82.2 s  ClockTime = 82 s
Inflow      : -9.2359249e-08 [kg/s]
Outflow     : -9.2178608e-08 [kg/s]
EnergyInflow  : -0.027288667 [W]
EnergyOutflow : -0.027235294 [W]
rho max/avg/min : 1.1994527 1.1759128 1.1466611
T   max/avg/min : 307.78337 300.19715 294.18621
P   max/avg/min : 101324.91 101316.34 101299.91
Prg max/avg/min : 101325.84 101324.99 101316.54
U   max/avg/min : 0.0020937914 -0.0053722351 -0.026478369
Prg max-min : 9.2979185
 
Iteration Number = 4129

DILUPBiCG:  Solving for Ux, Initial residual = 0.82245184, Final residual = 0.00017628472, No Iterations 1
DILUPBiCG:  Solving for Uy, Initial residual = 0.0053932381, Final residual = 6.4702796e-07, No Iterations 1
DILUPBiCG:  Solving for Uz, Initial residual = 0.00099742952, Final residual = 2.0514801e-07, No Iterations 1
DILUPBiCG:  Solving for h, Initial residual = 0.00028453955, Final residual = 6.6564316e-07, No Iterations 1
GAMG:  Solving for p_rgh, Initial residual = 0.046783503, Final residual = 6.6757444e-06, No Iterations 2
time step continuity errors : sum local = 0.00028512865, global = -1.6635839e-05, cumulative = -0.0013817215
ExecutionTime = 82.26 s  ClockTime = 82 s
Inflow      : -9.2490371e-08 [kg/s]
Outflow     : -9.2618068e-08 [kg/s]
EnergyInflow  : -0.027327408 [W]
EnergyOutflow : -0.027373041 [W]
rho max/avg/min : 1.1994579 1.1758925 1.1466231
T   max/avg/min : 307.79357 300.20233 294.18691
P   max/avg/min : 101324.91 101316.38 101307.47
Prg max/avg/min : 101332.61 101325.03 101324.62
U   max/avg/min : 0.0020946385 -0.0053809022 -0.02652309
Prg max-min : 7.9918165
 
Iteration Number = 4130

DILUPBiCG:  Solving for Ux, Initial residual = 0.81479286, Final residual = 0.00018016125, No Iterations 1
DILUPBiCG:  Solving for Uy, Initial residual = 0.0052890093, Final residual = 6.7111607e-07, No Iterations 1
DILUPBiCG:  Solving for Uz, Initial residual = 0.00097967717, Final residual = 2.0117012e-07, No Iterations 1
DILUPBiCG:  Solving for h, Initial residual = 0.00028427081, Final residual = 5.1969122e-07, No Iterations 1
GAMG:  Solving for p_rgh, Initial residual = 0.04971306, Final residual = 6.7043067e-06, No Iterations 2
time step continuity errors : sum local = 0.00028681678, global = 1.707861e-05, cumulative = -0.0013646429
ExecutionTime = 82.33 s  ClockTime = 82 s
Inflow      : -9.2605577e-08 [kg/s]
Outflow     : -9.2474481e-08 [kg/s]
EnergyInflow  : -0.027361447 [W]
EnergyOutflow : -0.027322714 [W]
rho max/avg/min : 1.199447 1.1758732 1.146585
T   max/avg/min : 307.80378 300.20752 294.18761
P   max/avg/min : 101324.91 101316.34 101299.88
Prg max/avg/min : 101325.84 101324.99 101316.5
U   max/avg/min : 0.0020900525 -0.00538935 -0.026539086
Prg max-min : 9.3325897
 
Iteration Number = 4131

DILUPBiCG:  Solving for Ux, Initial residual = 0.92385854, Final residual = 0.00019896431, No Iterations 1
DILUPBiCG:  Solving for Uy, Initial residual = 0.0053372407, Final residual = 6.4256192e-07, No Iterations 1
DILUPBiCG:  Solving for Uz, Initial residual = 0.0010002339, Final residual = 2.0618427e-07, No Iterations 1
DILUPBiCG:  Solving for h, Initial residual = 0.00028416401, Final residual = 6.5785827e-07, No Iterations 1
GAMG:  Solving for p_rgh, Initial residual = 0.05027474, Final residual = 6.7978995e-06, No Iterations 2
time step continuity errors : sum local = 0.00029148497, global = -2.8287791e-05, cumulative = -0.0013929307
ExecutionTime = 82.4 s  ClockTime = 82 s
Inflow      : -9.2738961e-08 [kg/s]
Outflow     : -9.2956113e-08 [kg/s]
EnergyInflow  : -0.027400857 [W]
EnergyOutflow : -0.027473238 [W]
rho max/avg/min : 1.1994522 1.1758529 1.146547
T   max/avg/min : 307.81399 300.2127 294.18831
P   max/avg/min : 101324.91 101316.38 101307.47
Prg max/avg/min : 101332.8 101325.04 101324.62
U   max/avg/min : 0.0020909699 -0.0053981747 -0.026637363
Prg max-min : 8.1810923
 
Iteration Number = 4132

DILUPBiCG:  Solving for Ux, Initial residual = 0.80729956, Final residual = 0.0001796167, No Iterations 1
DILUPBiCG:  Solving for Uy, Initial residual = 0.0054128595, Final residual = 7.1083108e-07, No Iterations 1
DILUPBiCG:  Solving for Uz, Initial residual = 0.0010129548, Final residual = 2.0557002e-07, No Iterations 1
DILUPBiCG:  Solving for h, Initial residual = 0.00028393055, Final residual = 5.2092817e-07, No Iterations 1
GAMG:  Solving for p_rgh, Initial residual = 0.05402198, Final residual = 6.8167426e-06, No Iterations 2
time step continuity errors : sum local = 0.00029278804, global = 1.1967251e-05, cumulative = -0.0013809634
ExecutionTime = 82.47 s  ClockTime = 82 s
Inflow      : -9.2859862e-08 [kg/s]
Outflow     : -9.2768009e-08 [kg/s]
EnergyInflow  : -0.027436579 [W]
EnergyOutflow : -0.02740944 [W]
rho max/avg/min : 1.1994413 1.1758335 1.146509
T   max/avg/min : 307.82419 300.21789 294.18901
P   max/avg/min : 101324.91 101316.34 101299.84
Prg max/avg/min : 101325.84 101324.99 101316.46
U   max/avg/min : 0.0020891721 -0.0054066739 -0.02664786
Prg max-min : 9.3783012
 
Iteration Number = 4133

DILUPBiCG:  Solving for Ux, Initial residual = 0.81627535, Final residual = 0.00017682801, No Iterations 1
DILUPBiCG:  Solving for Uy, Initial residual = 0.0054269619, Final residual = 6.2300436e-07, No Iterations 1
DILUPBiCG:  Solving for Uz, Initial residual = 0.0010092458, Final residual = 2.0837528e-07, No Iterations 1
DILUPBiCG:  Solving for h, Initial residual = 0.0002838134, Final residual = 6.9594574e-07, No Iterations 1
GAMG:  Solving for p_rgh, Initial residual = 0.047257129, Final residual = 6.8026739e-06, No Iterations 2
time step continuity errors : sum local = 0.00029140385, global = -2.9107251e-05, cumulative = -0.0014100707
ExecutionTime = 82.53 s  ClockTime = 82 s
Inflow      : -9.2995758e-08 [kg/s]
Outflow     : -9.3219202e-08 [kg/s]
EnergyInflow  : -0.027476731 [W]
EnergyOutflow : -0.027552784 [W]
rho max/avg/min : 1.1994466 1.1758132 1.146471
T   max/avg/min : 307.83439 300.22307 294.18971
P   max/avg/min : 101324.91 101316.38 101307.47
Prg max/avg/min : 101332.68 101325.04 101324.62
U   max/avg/min : 0.0020888787 -0.0054154661 -0.02669489
Prg max-min : 8.0667048
 
Iteration Number = 4134

DILUPBiCG:  Solving for Ux, Initial residual = 0.81083807, Final residual = 0.00018130891, No Iterations 1
DILUPBiCG:  Solving for Uy, Initial residual = 0.005457091, Final residual = 7.2464589e-07, No Iterations 1
DILUPBiCG:  Solving for Uz, Initial residual = 0.00099079141, Final residual = 2.0342469e-07, No Iterations 1
DILUPBiCG:  Solving for h, Initial residual = 0.00028353461, Final residual = 5.2377327e-07, No Iterations 1
GAMG:  Solving for p_rgh, Initial residual = 0.050568447, Final residual = 6.6784689e-06, No Iterations 2
time step continuity errors : sum local = 0.00028672446, global = 8.6532644e-06, cumulative = -0.0014014174
ExecutionTime = 82.6 s  ClockTime = 82 s
Inflow      : -9.3123042e-08 [kg/s]
Outflow     : -9.3056631e-08 [kg/s]
EnergyInflow  : -0.027514339 [W]
EnergyOutflow : -0.027494717 [W]
rho max/avg/min : 1.1994356 1.1757939 1.146433
T   max/avg/min : 307.8446 300.22825 294.1904
P   max/avg/min : 101324.91 101316.34 101299.95
Prg max/avg/min : 101325.84 101324.99 101316.57
U   max/avg/min : 0.0020845808 -0.005424087 -0.026706559
Prg max-min : 9.2682259
 
Iteration Number = 4135

DILUPBiCG:  Solving for Ux, Initial residual = 0.8268864, Final residual = 0.00018090721, No Iterations 1
DILUPBiCG:  Solving for Uy, Initial residual = 0.0053803633, Final residual = 6.9972906e-07, No Iterations 1
DILUPBiCG:  Solving for Uz, Initial residual = 0.00098784084, Final residual = 2.0711241e-07, No Iterations 1
DILUPBiCG:  Solving for h, Initial residual = 0.00028341256, Final residual = 6.9011602e-07, No Iterations 1
GAMG:  Solving for p_rgh, Initial residual = 0.04637035, Final residual = 6.6907195e-06, No Iterations 2
time step continuity errors : sum local = 0.0002866681, global = -3.1615947e-05, cumulative = -0.0014330334
ExecutionTime = 82.67 s  ClockTime = 82 s
Inflow      : -9.3269312e-08 [kg/s]
Outflow     : -9.3512016e-08 [kg/s]
EnergyInflow  : -0.027557556 [W]
EnergyOutflow : -0.027637215 [W]
rho max/avg/min : 1.1994409 1.1757736 1.146395
T   max/avg/min : 307.8548 300.23343 294.1911
P   max/avg/min : 101324.91 101316.38 101307.47
Prg max/avg/min : 101332.57 101325.04 101324.62
U   max/avg/min : 0.0020855918 -0.0054330048 -0.026749387
Prg max-min : 7.9573099
 
Iteration Number = 4136

DILUPBiCG:  Solving for Ux, Initial residual = 0.81542141, Final residual = 0.0001841793, No Iterations 1
DILUPBiCG:  Solving for Uy, Initial residual = 0.0053688245, Final residual = 6.843118e-07, No Iterations 1
DILUPBiCG:  Solving for Uz, Initial residual = 0.00097044393, Final residual = 2.0209357e-07, No Iterations 1
DILUPBiCG:  Solving for h, Initial residual = 0.00028314715, Final residual = 5.2810637e-07, No Iterations 1
GAMG:  Solving for p_rgh, Initial residual = 0.049378411, Final residual = 6.6847521e-06, No Iterations 2
time step continuity errors : sum local = 0.0002869648, global = 5.7634213e-06, cumulative = -0.0014272699
ExecutionTime = 82.74 s  ClockTime = 82 s
Inflow      : -9.3407857e-08 [kg/s]
Outflow     : -9.3363632e-08 [kg/s]
EnergyInflow  : -0.027598491 [W]
EnergyOutflow : -0.027585424 [W]
rho max/avg/min : 1.19943 1.1757543 1.1463571
T   max/avg/min : 307.865 300.23861 294.1918
P   max/avg/min : 101324.91 101316.34 101299.42
Prg max/avg/min : 101325.84 101324.99 101316.04
U   max/avg/min : 0.0020825063 -0.0054417944 -0.026765801
Prg max-min : 9.7980523
 
Iteration Number = 4137

DILUPBiCG:  Solving for Ux, Initial residual = 0.88851281, Final residual = 0.00018540386, No Iterations 1
DILUPBiCG:  Solving for Uy, Initial residual = 0.005588859, Final residual = 6.7055895e-07, No Iterations 1
DILUPBiCG:  Solving for Uz, Initial residual = 0.0010149277, Final residual = 2.0862769e-07, No Iterations 1
DILUPBiCG:  Solving for h, Initial residual = 0.00028304333, Final residual = 6.8413423e-07, No Iterations 1
GAMG:  Solving for p_rgh, Initial residual = 0.051123062, Final residual = 6.9784858e-06, No Iterations 2
time step continuity errors : sum local = 0.00030054002, global = -3.8276701e-05, cumulative = -0.0014655466
ExecutionTime = 82.81 s  ClockTime = 82 s
Inflow      : -9.3570033e-08 [kg/s]
Outflow     : -9.3863873e-08 [kg/s]
EnergyInflow  : -0.027646408 [W]
EnergyOutflow : -0.027740353 [W]
rho max/avg/min : 1.1994352 1.175734 1.1463191
T   max/avg/min : 307.8752 300.24378 294.1925
P   max/avg/min : 101324.91 101316.39 101307.47
Prg max/avg/min : 101333.8 101325.04 101324.62
U   max/avg/min : 0.0020833163 -0.0054510955 -0.026880393
Prg max-min : 9.1843323
 
Iteration Number = 4138

DILUPBiCG:  Solving for Ux, Initial residual = 0.7971135, Final residual = 0.00016287316, No Iterations 1
DILUPBiCG:  Solving for Uy, Initial residual = 0.0057605414, Final residual = 7.4692297e-07, No Iterations 1
DILUPBiCG:  Solving for Uz, Initial residual = 0.0010545939, Final residual = 2.0993571e-07, No Iterations 1
DILUPBiCG:  Solving for h, Initial residual = 0.00028281729, Final residual = 5.2894121e-07, No Iterations 1
GAMG:  Solving for p_rgh, Initial residual = 0.054757393, Final residual = 6.9496491e-06, No Iterations 2
time step continuity errors : sum local = 0.0002998562, global = 7.5468212e-06, cumulative = -0.0014579998
ExecutionTime = 82.87 s  ClockTime = 82 s
Inflow      : -9.3719544e-08 [kg/s]
Outflow     : -9.3661629e-08 [kg/s]
EnergyInflow  : -0.027690583 [W]
EnergyOutflow : -0.027673471 [W]
rho max/avg/min : 1.1994243 1.1757147 1.1462811
T   max/avg/min : 307.8854 300.24896 294.19319
P   max/avg/min : 101324.91 101316.34 101298.84
Prg max/avg/min : 101325.84 101324.99 101315.46
U   max/avg/min : 0.0020800893 -0.0054601775 -0.02687936
Prg max-min : 10.382611
 
Iteration Number = 4139

DILUPBiCG:  Solving for Ux, Initial residual = 0.80462583, Final residual = 0.00015924593, No Iterations 1
DILUPBiCG:  Solving for Uy, Initial residual = 0.0056321083, Final residual = 6.4601542e-07, No Iterations 1
DILUPBiCG:  Solving for Uz, Initial residual = 0.0010495515, Final residual = 2.125551e-07, No Iterations 1
DILUPBiCG:  Solving for h, Initial residual = 0.00028270681, Final residual = 7.3741969e-07, No Iterations 1
GAMG:  Solving for p_rgh, Initial residual = 0.047113032, Final residual = 6.8826537e-06, No Iterations 2
time step continuity errors : sum local = 0.00029593998, global = -2.4243733e-05, cumulative = -0.0014822435
ExecutionTime = 82.94 s  ClockTime = 83 s
Inflow      : -9.3876069e-08 [kg/s]
Outflow     : -9.4062173e-08 [kg/s]
EnergyInflow  : -0.02773683 [W]
EnergyOutflow : -0.027802468 [W]
rho max/avg/min : 1.1994296 1.1756944 1.1462432
T   max/avg/min : 307.89559 300.25414 294.19389
P   max/avg/min : 101324.91 101316.39 101307.47
Prg max/avg/min : 101333.68 101325.04 101324.62
U   max/avg/min : 0.0020800895 -0.0054693838 -0.026911307
Prg max-min : 9.0628627
 
Iteration Number = 4140

DILUPBiCG:  Solving for Ux, Initial residual = 0.79861326, Final residual = 0.00016316365, No Iterations 1
DILUPBiCG:  Solving for Uy, Initial residual = 0.005569863, Final residual = 6.8656683e-07, No Iterations 1
DILUPBiCG:  Solving for Uz, Initial residual = 0.0010292172, Final residual = 2.0431898e-07, No Iterations 1
DILUPBiCG:  Solving for h, Initial residual = 0.00028242707, Final residual = 5.3230231e-07, No Iterations 1
GAMG:  Solving for p_rgh, Initial residual = 0.050367835, Final residual = 6.8996024e-06, No Iterations 2
time step continuity errors : sum local = 0.00029729094, global = 1.56293e-05, cumulative = -0.0014666142
ExecutionTime = 83 s  ClockTime = 83 s
Inflow      : -9.4015476e-08 [kg/s]
Outflow     : -9.3895508e-08 [kg/s]
EnergyInflow  : -0.027778019 [W]
EnergyOutflow : -0.027742573 [W]
rho max/avg/min : 1.1994186 1.1756751 1.1462052
T   max/avg/min : 307.90579 300.25931 294.19459
P   max/avg/min : 101324.91 101316.34 101298.96
Prg max/avg/min : 101325.85 101324.99 101315.58
U   max/avg/min : 0.0020776835 -0.0054783457 -0.026928816
Prg max-min : 10.267951
 
Iteration Number = 4141

DILUPBiCG:  Solving for Ux, Initial residual = 0.81584331, Final residual = 0.00016272045, No Iterations 1
DILUPBiCG:  Solving for Uy, Initial residual = 0.0056016733, Final residual = 7.5195062e-07, No Iterations 1
DILUPBiCG:  Solving for Uz, Initial residual = 0.0010286437, Final residual = 2.0942903e-07, No Iterations 1
DILUPBiCG:  Solving for h, Initial residual = 0.00028230947, Final residual = 7.284997e-07, No Iterations 1
GAMG:  Solving for p_rgh, Initial residual = 0.046561951, Final residual = 6.8726889e-06, No Iterations 2
time step continuity errors : sum local = 0.00029552283, global = -1.909706e-05, cumulative = -0.0014857113
ExecutionTime = 83.07 s  ClockTime = 83 s
Inflow      : -9.4164493e-08 [kg/s]
Outflow     : -9.4311086e-08 [kg/s]
EnergyInflow  : -0.027822048 [W]
EnergyOutflow : -0.027875853 [W]
rho max/avg/min : 1.1994239 1.1756548 1.1461672
T   max/avg/min : 307.91598 300.26448 294.19529
P   max/avg/min : 101324.91 101316.39 101307.47
Prg max/avg/min : 101333.57 101325.04 101324.62
U   max/avg/min : 0.0020778919 -0.0054875196 -0.026974043
Prg max-min : 8.9471081
 
Iteration Number = 4142

DILUPBiCG:  Solving for Ux, Initial residual = 0.80404266, Final residual = 0.00016601416, No Iterations 1
DILUPBiCG:  Solving for Uy, Initial residual = 0.0055393947, Final residual = 7.164256e-07, No Iterations 1
DILUPBiCG:  Solving for Uz, Initial residual = 0.0010119619, Final residual = 2.0506065e-07, No Iterations 1
DILUPBiCG:  Solving for h, Initial residual = 0.00028204272, Final residual = 5.3593422e-07, No Iterations 1
GAMG:  Solving for p_rgh, Initial residual = 0.050019341, Final residual = 6.9084342e-06, No Iterations 2
time step continuity errors : sum local = 0.000297941, global = 1.7853135e-05, cumulative = -0.0014678582
ExecutionTime = 83.14 s  ClockTime = 83 s
Inflow      : -9.429932e-08 [kg/s]
Outflow     : -9.4162279e-08 [kg/s]
EnergyInflow  : -0.027861885 [W]
EnergyOutflow : -0.027821394 [W]
rho max/avg/min : 1.1994129 1.1756356 1.1461293
T   max/avg/min : 307.92618 300.26966 294.19598
P   max/avg/min : 101324.91 101316.34 101299.06
Prg max/avg/min : 101325.85 101324.99 101315.67
U   max/avg/min : 0.0020751286 -0.0054964377 -0.026977935
Prg max-min : 10.174931
 
Iteration Number = 4143

DILUPBiCG:  Solving for Ux, Initial residual = 0.83868393, Final residual = 0.000169139, No Iterations 1
DILUPBiCG:  Solving for Uy, Initial residual = 0.0054983431, Final residual = 6.7135536e-07, No Iterations 1
DILUPBiCG:  Solving for Uz, Initial residual = 0.0010140131, Final residual = 2.077768e-07, No Iterations 1
DILUPBiCG:  Solving for h, Initial residual = 0.00028192469, Final residual = 7.2271123e-07, No Iterations 1
GAMG:  Solving for p_rgh, Initial residual = 0.048574979, Final residual = 6.7747176e-06, No Iterations 2
time step continuity errors : sum local = 0.00029237776, global = -1.7651951e-05, cumulative = -0.0014855101
ExecutionTime = 83.2 s  ClockTime = 83 s
Inflow      : -9.4444794e-08 [kg/s]
Outflow     : -9.4580292e-08 [kg/s]
EnergyInflow  : -0.027904867 [W]
EnergyOutflow : -0.027953402 [W]
rho max/avg/min : 1.1994183 1.1756153 1.1460914
T   max/avg/min : 307.93637 300.27483 294.19668
P   max/avg/min : 101324.91 101316.39 101307.47
Prg max/avg/min : 101333.49 101325.04 101324.62
U   max/avg/min : 0.0020759243 -0.0055056775 -0.02704911
Prg max-min : 8.8740938
 
Iteration Number = 4144

DILUPBiCG:  Solving for Ux, Initial residual = 0.80914249, Final residual = 0.00016826193, No Iterations 1
DILUPBiCG:  Solving for Uy, Initial residual = 0.0055642968, Final residual = 7.2146985e-07, No Iterations 1
DILUPBiCG:  Solving for Uz, Initial residual = 0.0010015659, Final residual = 2.0263055e-07, No Iterations 1
DILUPBiCG:  Solving for h, Initial residual = 0.00028167519, Final residual = 5.3768429e-07, No Iterations 1
