/*---------------------------------------------------------------------------*\
| =========                 |                                                 |
| \\      /  F ield         | OpenFOAM: The Open Source CFD Toolbox           |
|  \\    /   O peration     | Version:  4.0                                   |
|   \\  /    A nd           | Web:      www.OpenFOAM.org                      |
|    \\/     M anipulation  |                                                 |
\*---------------------------------------------------------------------------*/
Build  : 4.0-665f1db4c1f1
Exec   : pupoBuoyantSimpleFoam
Date   : Sep 17 2016
Time   : 18:25:20
Host   : "FAB2000"
PID    : 4784
Case   : /home/pedro/Documents/ThesisProject/OpenFoam/validation1rod/bug
nProcs : 1
sigFpe : Enabling floating point exception trapping (FOAM_SIGFPE).
fileModificationChecking : Monitoring run-time modified files using timeStampMaster
allowSystemOperations : Allowing user-supplied system call operations

// * * * * * * * * * * * * * * * * * * * * * * * * * * * * * * * * * * * * * //
Create time

Create mesh for time = 0


SIMPLE: convergence criteria
    field p_rgh	 tolerance 1e-05
    field Uz	 tolerance 1e-05
    field h	 tolerance 1e-05

Reading thermophysical properties

Selecting thermodynamics package 
{
    type            heRhoThermo;
    mixture         pureMixture;
    transport       sutherland;
    thermo          hConst;
    equationOfState perfectGas;
    specie          specie;
    energy          sensibleEnthalpy;
}


Reading g

Reading hRef
Calculating field g.h

Selecting turbulence model type laminar
No MRF models present

Selecting radiationModel none
 
rho max/avg/min : 1.176405 1.176405 1.176405
T   max/avg/min : 300 300 300
P   max/avg/min : 101324.42 101324.42 101324.42
Prg max/avg/min : 101325 101325 101325
U   max/avg/min : 0 0 0
 
sngrad(rho) :-0.00013398845 -0.00013398845 -0.00013398845
 
No finite volume options present


Starting Iteration loop

Iteration Number = 1

DILUPBiCG:  Solving for Ux, Initial residual = 0, Final residual = 0, No Iterations 0
DILUPBiCG:  Solving for Uy, Initial residual = 0, Final residual = 0, No Iterations 0
DILUPBiCG:  Solving for Uz, Initial residual = 1, Final residual = 0, No Iterations 1
DILUPBiCG:  Solving for h, Initial residual = 1, Final residual = 0, No Iterations 1
GAMG:  Solving for p_rgh, Initial residual = 1, Final residual = 0, No Iterations 1
time step continuity errors : sum local = 1.1558237e-07, global = -1.1558237e-07, cumulative = -1.1558237e-07
ExecutionTime = 0 s  ClockTime = 0 s
Inflow      : -7.4585401e-08 [kg/s]
Outflow     : -7.4591827e-08 [kg/s]
EnergyInflow  : -0.022509874 [W]
EnergyOutflow : -0.022511813 [W]
EnergyBalance : -1.9394801e-06 [W]
rho max/avg/min : 1.1763939 1.1763939 1.1763939
T   max/avg/min : 300.00284 300.00284 300.00284
P   max/avg/min : 101324.42 101324.42 101324.42
Prg max/avg/min : 101325 101325 101325
U   max/avg/min : 0 -0.00011403579 -0.00011403579
Prg max-min : 0
 
sngrad(rho) :8.8915609e-05 8.8915609e-05 8.8915609e-05
 
Iteration Number = 2

DILUPBiCG:  Solving for Ux, Initial residual = 0.99650856, Final residual = 1.344855e-16, No Iterations 1
DILUPBiCG:  Solving for Uy, Initial residual = 2.5849327e-06, Final residual = 0, No Iterations 1
DILUPBiCG:  Solving for Uz, Initial residual = 1, Final residual = 0, No Iterations 1
DILUPBiCG:  Solving for h, Initial residual = 1, Final residual = 0, No Iterations 1
GAMG:  Solving for p_rgh, Initial residual = 1, Final residual = 0, No Iterations 1
time step continuity errors : sum local = 9.6355241e-09, global = 9.6355241e-09, cumulative = -1.0594685e-07
ExecutionTime = 0.01 s  ClockTime = 0 s
Inflow      : -4.7037548e-08 [kg/s]
Outflow     : -4.7037012e-08 [kg/s]
EnergyInflow  : -0.014195932 [W]
EnergyOutflow : -0.01419577 [W]
EnergyBalance : 1.6168475e-07 [W]
rho max/avg/min : 1.1764036 1.1764036 1.1764036
T   max/avg/min : 300.00035 300.00035 300.00035
P   max/avg/min : 101324.42 101324.42 101324.42
Prg max/avg/min : 101325 101325 101325
U   max/avg/min : 0 -7.1913571e-05 -7.1913571e-05
Prg max-min : 0
 
sngrad(rho) :-0.00010625078 -0.00010625078 -0.00010625078
 
Iteration Number = 3

DILUPBiCG:  Solving for Ux, Initial residual = 0.99723503, Final residual = 0, No Iterations 1
DILUPBiCG:  Solving for Uy, Initial residual = 1.9265657e-07, Final residual = 1.9265657e-07, No Iterations 0
DILUPBiCG:  Solving for Uz, Initial residual = 1, Final residual = 0, No Iterations 1
DILUPBiCG:  Solving for h, Initial residual = 1, Final residual = 1.4557434e-16, No Iterations 1
GAMG:  Solving for p_rgh, Initial residual = 0, Final residual = 0, No Iterations 0
time step continuity errors : sum local = 6.193291e-09, global = 6.193291e-09, cumulative = -9.9753557e-08
ExecutionTime = 0.01 s  ClockTime = 0 s
Inflow      : -3.0233416e-08 [kg/s]
Outflow     : -3.0233071e-08 [kg/s]
EnergyInflow  : -0.0091244449 [W]
EnergyOutflow : -0.0091243409 [W]
EnergyBalance : 1.0392384e-07 [W]
rho max/avg/min : 1.1764047 1.1764047 1.1764047
T   max/avg/min : 300.00008 300.00008 300.00008
P   max/avg/min : 101324.42 101324.42 101324.42
Prg max/avg/min : 101325 101325 101325
U   max/avg/min : 0 -4.6222496e-05 -4.6222496e-05
Prg max-min : 0
 
sngrad(rho) :-0.00012771421 -0.00012771421 -0.00012771421
 
Iteration Number = 4

DILUPBiCG:  Solving for Ux, Initial residual = 0.97696092, Final residual = 1.1092911e-16, No Iterations 1
DILUPBiCG:  Solving for Uy, Initial residual = 7.8403565e-08, Final residual = 7.8403565e-08, No Iterations 0
DILUPBiCG:  Solving for Uz, Initial residual = 1, Final residual = 0, No Iterations 1
DILUPBiCG:  Solving for h, Initial residual = 1, Final residual = 0, No Iterations 1
GAMG:  Solving for p_rgh, Initial residual = 0, Final residual = 0, No Iterations 0
time step continuity errors : sum local = 6.1404783e-08, global = -6.1404783e-08, cumulative = -1.6115834e-07
ExecutionTime = 0.01 s  ClockTime = 0 s
Inflow      : -1.9652448e-08 [kg/s]
Outflow     : -1.9655862e-08 [kg/s]
EnergyInflow  : -0.0059311087 [W]
EnergyOutflow : -0.0059321391 [W]
EnergyBalance : -1.0303764e-06 [W]
rho max/avg/min : 1.1764049 1.1764049 1.1764049
T   max/avg/min : 300.00004 300.00004 300.00004
P   max/avg/min : 101324.42 101324.42 101324.42
Prg max/avg/min : 101325 101325 101325
U   max/avg/min : 0 -3.0048516e-05 -3.0048516e-05
Prg max-min : 0
 
sngrad(rho) :-0.00013108534 -0.00013108534 -0.00013108534
 
Iteration Number = 5

DILUPBiCG:  Solving for Ux, Initial residual = 0.95696395, Final residual = 0, No Iterations 1
DILUPBiCG:  Solving for Uy, Initial residual = 6.7814509e-07, Final residual = 6.7814509e-07, No Iterations 0
DILUPBiCG:  Solving for Uz, Initial residual = 1, Final residual = 0, No Iterations 1
DILUPBiCG:  Solving for h, Initial residual = 1, Final residual = 0, No Iterations 1
GAMG:  Solving for p_rgh, Initial residual = 0, Final residual = 0, No Iterations 0
time step continuity errors : sum local = 2.636289e-09, global = 2.636289e-09, cumulative = -1.5852205e-07
ExecutionTime = 0.01 s  ClockTime = 0 s
Inflow      : -1.28694e-08 [kg/s]
Outflow     : -1.2869253e-08 [kg/s]
EnergyInflow  : -0.0038839849 [W]
EnergyOutflow : -0.0038839406 [W]
EnergyBalance : 4.4237109e-08 [W]
rho max/avg/min : 1.1764049 1.1764049 1.1764049
T   max/avg/min : 300.00002 300.00002 300.00002
P   max/avg/min : 101324.42 101324.42 101324.42
Prg max/avg/min : 101325 101325 101325
U   max/avg/min : 0 -1.9675441e-05 -1.9675441e-05
Prg max-min : 0
 
sngrad(rho) :-0.00013220831 -0.00013220831 -0.00013220831
 
Iteration Number = 6

DILUPBiCG:  Solving for Ux, Initial residual = 0.87958475, Final residual = 0, No Iterations 1
DILUPBiCG:  Solving for Uy, Initial residual = 1.2453286e-06, Final residual = 0, No Iterations 1
DILUPBiCG:  Solving for Uz, Initial residual = 1, Final residual = 0, No Iterations 1
DILUPBiCG:  Solving for h, Initial residual = 1, Final residual = 0, No Iterations 1
GAMG:  Solving for p_rgh, Initial residual = 1, Final residual = 1, No Iterations 1000
time step continuity errors : sum local = 1.2912853e-07, global = -1.2912853e-07, cumulative = -2.8765058e-07
ExecutionTime = 0.08 s  ClockTime = 0 s
Inflow      : -8.4580152e-09 [kg/s]
Outflow     : -8.4651948e-09 [kg/s]
EnergyInflow  : -0.002552629 [W]
EnergyOutflow : -0.0025547958 [W]
EnergyBalance : -2.1667855e-06 [W]
rho max/avg/min : 1.176405 1.176405 1.176405
T   max/avg/min : 300.00001 300.00001 300.00001
P   max/avg/min : 101324.42 101324.42 101324.42
Prg max/avg/min : 101325 101325 101325
U   max/avg/min : 0 -1.2936637e-05 -1.2936637e-05
Prg max-min : 0
 
sngrad(rho) :-0.00013283056 -0.00013283056 -0.00013283056
 
Iteration Number = 7

DILUPBiCG:  Solving for Ux, Initial residual = 0.69373998, Final residual = 0, No Iterations 1
DILUPBiCG:  Solving for Uy, Initial residual = 1.1639068e-07, Final residual = 1.1639068e-07, No Iterations 0
DILUPBiCG:  Solving for Uz, Initial residual = 1, Final residual = 0, No Iterations 1
DILUPBiCG:  Solving for h, Initial residual = 1, Final residual = 1.2316129e-16, No Iterations 1
GAMG:  Solving for p_rgh, Initial residual = 1, Final residual = 0, No Iterations 1
time step continuity errors : sum local = 1.1434254e-09, global = 1.1434254e-09, cumulative = -2.8650716e-07
ExecutionTime = 0.08 s  ClockTime = 0 s
Inflow      : -5.5817848e-09 [kg/s]
Outflow     : -5.5817213e-09 [kg/s]
EnergyInflow  : -0.0016845827 [W]
EnergyOutflow : -0.0016845635 [W]
EnergyBalance : 1.9186757e-08 [W]
rho max/avg/min : 1.176405 1.176405 1.176405
T   max/avg/min : 300.00001 300.00001 300.00001
P   max/avg/min : 101324.42 101324.42 101324.42
Prg max/avg/min : 101325 101325 101325
U   max/avg/min : 0 -8.5337373e-06 -8.5337373e-06
Prg max-min : 0
 
sngrad(rho) :-0.00013322693 -0.00013322693 -0.00013322693
 
Iteration Number = 8

DILUPBiCG:  Solving for Ux, Initial residual = 0.41379908, Final residual = 0, No Iterations 1
DILUPBiCG:  Solving for Uy, Initial residual = 4.3730782e-07, Final residual = 4.3730782e-07, No Iterations 0
DILUPBiCG:  Solving for Uz, Initial residual = 1, Final residual = 0, No Iterations 1
DILUPBiCG:  Solving for h, Initial residual = 1, Final residual = 0, No Iterations 1
GAMG:  Solving for p_rgh, Initial residual = 1, Final residual = 1, No Iterations 1000
time step continuity errors : sum local = 1.3161843e-07, global = 1.3161843e-07, cumulative = -1.5488872e-07
ExecutionTime = 0.14 s  ClockTime = 0 s
Inflow      : -3.6967853e-09 [kg/s]
Outflow     : -3.6894673e-09 [kg/s]
EnergyInflow  : -0.0011156898 [W]
EnergyOutflow : -0.0011134812 [W]
EnergyBalance : 2.2085663e-06 [W]
rho max/avg/min : 1.176405 1.176405 1.176405
T   max/avg/min : 300.00001 300.00001 300.00001
P   max/avg/min : 101324.42 101324.42 101324.42
Prg max/avg/min : 101325 101325 101325
U   max/avg/min : 0 -5.6462852e-06 -5.6518471e-06
Prg max-min : 0
 
sngrad(rho) :-0.00013348542 -0.00013348542 -0.00013348542
 
Iteration Number = 9

DILUPBiCG:  Solving for Ux, Initial residual = 0.18383008, Final residual = 0, No Iterations 1
DILUPBiCG:  Solving for Uy, Initial residual = 1.4514941e-07, Final residual = 1.4514941e-07, No Iterations 0
DILUPBiCG:  Solving for Uz, Initial residual = 1, Final residual = 0, No Iterations 1
DILUPBiCG:  Solving for h, Initial residual = 1, Final residual = 0, No Iterations 1
GAMG:  Solving for p_rgh, Initial residual = 1, Final residual = 0, No Iterations 1
time step continuity errors : sum local = 5.0081301e-10, global = 5.0081301e-10, cumulative = -1.5438791e-07
ExecutionTime = 0.14 s  ClockTime = 0 s
Inflow      : -2.4447859e-09 [kg/s]
Outflow     : -2.444758e-09 [kg/s]
EnergyInflow  : -0.00073783637 [W]
EnergyOutflow : -0.00073782797 [W]
EnergyBalance : 8.4036763e-09 [W]
rho max/avg/min : 1.176405 1.176405 1.176405
T   max/avg/min : 300 300 300
P   max/avg/min : 101324.42 101324.42 101324.42
Prg max/avg/min : 101325 101325 101325
U   max/avg/min : 0 -3.7377221e-06 -3.7377221e-06
Prg max-min : 0
 
sngrad(rho) :-0.00013365515 -0.00013365515 -0.00013365515
 
Iteration Number = 10

DILUPBiCG:  Solving for Ux, Initial residual = 0.069129905, Final residual = 0, No Iterations 1
DILUPBiCG:  Solving for Uy, Initial residual = 2.170954e-08, Final residual = 2.170954e-08, No Iterations 0
DILUPBiCG:  Solving for Uz, Initial residual = 1, Final residual = 0, No Iterations 1
DILUPBiCG:  Solving for h, Initial residual = 1, Final residual = 0, No Iterations 1
GAMG:  Solving for p_rgh, Initial residual = 0, Final residual = 0, No Iterations 0
time step continuity errors : sum local = 3.3172412e-10, global = 3.3172412e-10, cumulative = -1.5405619e-07
ExecutionTime = 0.15 s  ClockTime = 0 s
Inflow      : -1.6193558e-09 [kg/s]
Outflow     : -1.6193374e-09 [kg/s]
EnergyInflow  : -0.00048872158 [W]
EnergyOutflow : -0.00048871601 [W]
EnergyBalance : 5.5663533e-09 [W]
rho max/avg/min : 1.176405 1.176405 1.176405
T   max/avg/min : 300 300 300
P   max/avg/min : 101324.42 101324.42 101324.42
Prg max/avg/min : 101325 101325 101325
U   max/avg/min : 0 -2.4757595e-06 -2.4757595e-06
Prg max-min : 0
 
sngrad(rho) :-0.00013376795 -0.00013376795 -0.00013376795
 
Iteration Number = 11

DILUPBiCG:  Solving for Ux, Initial residual = 0.024783241, Final residual = 0, No Iterations 1
DILUPBiCG:  Solving for Uy, Initial residual = 8.8349751e-09, Final residual = 8.8349751e-09, No Iterations 0
DILUPBiCG:  Solving for Uz, Initial residual = 0.99999999, Final residual = 0, No Iterations 1
DILUPBiCG:  Solving for h, Initial residual = 1, Final residual = 0, No Iterations 1
GAMG:  Solving for p_rgh, Initial residual = 0, Final residual = 0, No Iterations 0
time step continuity errors : sum local = 2.1984499e-10, global = 2.1984499e-10, cumulative = -1.5383634e-07
ExecutionTime = 0.15 s  ClockTime = 0 s
Inflow      : -1.0732028e-09 [kg/s]
Outflow     : -1.0731906e-09 [kg/s]
EnergyInflow  : -0.00032389261 [W]
EnergyOutflow : -0.00032388892 [W]
EnergyBalance : 3.6890139e-09 [W]
rho max/avg/min : 1.176405 1.176405 1.176405
T   max/avg/min : 300 300 300
P   max/avg/min : 101324.42 101324.42 101324.42
Prg max/avg/min : 101325 101325 101325
U   max/avg/min : 0 -1.640771e-06 -1.640771e-06
Prg max-min : 0
 
sngrad(rho) :-0.00013384248 -0.00013384248 -0.00013384248
 
Iteration Number = 12

DILUPBiCG:  Solving for Ux, Initial residual = 0.0090129639, Final residual = 0, No Iterations 1
DILUPBiCG:  Solving for Uy, Initial residual = 1.2476453e-07, Final residual = 1.2476453e-07, No Iterations 0
DILUPBiCG:  Solving for Uz, Initial residual = 0.99999999, Final residual = 0, No Iterations 1
DILUPBiCG:  Solving for h, Initial residual = 1, Final residual = 1.2369418e-16, No Iterations 1
GAMG:  Solving for p_rgh, Initial residual = 0, Final residual = 0, No Iterations 0
time step continuity errors : sum local = 1.4575167e-10, global = 1.4575167e-10, cumulative = -1.5369059e-07
ExecutionTime = 0.15 s  ClockTime = 0 s
Inflow      : -7.1150632e-10 [kg/s]
Outflow     : -7.1149821e-10 [kg/s]
EnergyInflow  : -0.00021473261 [W]
EnergyOutflow : -0.00021473016 [W]
EnergyBalance : 2.4457229e-09 [W]
rho max/avg/min : 1.176405 1.176405 1.176405
T   max/avg/min : 300 300 300
P   max/avg/min : 101324.42 101324.42 101324.42
Prg max/avg/min : 101325 101325 101325
U   max/avg/min : 0 -1.0877897e-06 -1.0877897e-06
Prg max-min : 0
 
sngrad(rho) :-0.00013389181 -0.00013389181 -0.00013389181
 
Iteration Number = 13

DILUPBiCG:  Solving for Ux, Initial residual = 0.0033828699, Final residual = 0, No Iterations 1
DILUPBiCG:  Solving for Uy, Initial residual = 9.8099943e-09, Final residual = 9.8099943e-09, No Iterations 0
DILUPBiCG:  Solving for Uz, Initial residual = 0.99999999, Final residual = 0, No Iterations 1
DILUPBiCG:  Solving for h, Initial residual = 1, Final residual = 0, No Iterations 1
GAMG:  Solving for p_rgh, Initial residual = 0, Final residual = 0, No Iterations 0
time step continuity errors : sum local = 9.6652858e-11, global = 9.6652858e-11, cumulative = -1.5359394e-07
ExecutionTime = 0.15 s  ClockTime = 0 s
Inflow      : -4.7182393e-10 [kg/s]
Outflow     : -4.7181855e-10 [kg/s]
EnergyInflow  : -0.00014239646 [W]
EnergyOutflow : -0.00014239484 [W]
EnergyBalance : 1.6218415e-09 [W]
rho max/avg/min : 1.176405 1.176405 1.176405
T   max/avg/min : 300 300 300
P   max/avg/min : 101324.42 101324.42 101324.42
Prg max/avg/min : 101325 101325 101325
U   max/avg/min : 0 -7.2135017e-07 -7.2135017e-07
Prg max-min : 0
 
sngrad(rho) :-0.0001339245 -0.0001339245 -0.0001339245
 
Iteration Number = 14

DILUPBiCG:  Solving for Ux, Initial residual = 0.0013154014, Final residual = 0, No Iterations 1
DILUPBiCG:  Solving for Uy, Initial residual = 1.6202536e-08, Final residual = 1.6202536e-08, No Iterations 0
DILUPBiCG:  Solving for Uz, Initial residual = 0.99999998, Final residual = 0, No Iterations 1
DILUPBiCG:  Solving for h, Initial residual = 1, Final residual = 0, No Iterations 1
GAMG:  Solving for p_rgh, Initial residual = 0, Final residual = 0, No Iterations 0
time step continuity errors : sum local = 6.410398e-11, global = 6.410398e-11, cumulative = -1.5352983e-07
ExecutionTime = 0.15 s  ClockTime = 0 s
Inflow      : -3.1293218e-10 [kg/s]
Outflow     : -3.1292861e-10 [kg/s]
EnergyInflow  : -9.4442931e-05 [W]
EnergyOutflow : -9.4441855e-05 [W]
EnergyBalance : 1.0756691e-09 [W]
rho max/avg/min : 1.176405 1.176405 1.176405
T   max/avg/min : 300 300 300
P   max/avg/min : 101324.42 101324.42 101324.42
Prg max/avg/min : 101325 101325 101325
U   max/avg/min : 0 -4.7842779e-07 -4.7842779e-07
Prg max-min : 0
 
sngrad(rho) :-0.00013394616 -0.00013394616 -0.00013394616
 
Iteration Number = 15

DILUPBiCG:  Solving for Ux, Initial residual = 0.00052808459, Final residual = 0, No Iterations 1
DILUPBiCG:  Solving for Uy, Initial residual = 3.5035904e-09, Final residual = 3.5035904e-09, No Iterations 0
DILUPBiCG:  Solving for Uz, Initial residual = 0.99999997, Final residual = 0, No Iterations 1
DILUPBiCG:  Solving for h, Initial residual = 1, Final residual = 0, No Iterations 1
GAMG:  Solving for p_rgh, Initial residual = 1, Final residual = 0, No Iterations 1
time step continuity errors : sum local = 4.252076e-11, global = 4.252076e-11, cumulative = -1.5348731e-07
ExecutionTime = 0.15 s  ClockTime = 0 s
Inflow      : -2.075708e-10 [kg/s]
Outflow     : -2.0756844e-10 [kg/s]
EnergyInflow  : -6.2644867e-05 [W]
EnergyOutflow : -6.2644154e-05 [W]
EnergyBalance : 7.1350125e-10 [W]
rho max/avg/min : 1.176405 1.176405 1.176405
T   max/avg/min : 300 300 300
P   max/avg/min : 101324.42 101324.42 101324.42
Prg max/avg/min : 101325 101325 101325
U   max/avg/min : 0 -3.1734557e-07 -3.1734557e-07
Prg max-min : 0
 
sngrad(rho) :-0.00013396053 -0.00013396053 -0.00013396053
 
Iteration Number = 16

DILUPBiCG:  Solving for Ux, Initial residual = 0.00021759637, Final residual = 0, No Iterations 1
DILUPBiCG:  Solving for Uy, Initial residual = 1.4258308e-09, Final residual = 1.4258308e-09, No Iterations 0
DILUPBiCG:  Solving for Uz, Initial residual = 0.99999996, Final residual = 0, No Iterations 1
DILUPBiCG:  Solving for h, Initial residual = 1, Final residual = 0, No Iterations 1
GAMG:  Solving for p_rgh, Initial residual = 1, Final residual = 0, No Iterations 1
time step continuity errors : sum local = 6.5403083e-08, global = -6.5403083e-08, cumulative = -2.1889039e-07
ExecutionTime = 0.15 s  ClockTime = 0 s
Inflow      : -1.3420523e-10 [kg/s]
Outflow     : -1.3784164e-10 [kg/s]
EnergyInflow  : -4.050314e-05 [W]
EnergyOutflow : -4.1600608e-05 [W]
EnergyBalance : -1.0974682e-06 [W]
rho max/avg/min : 1.176405 1.176405 1.176405
T   max/avg/min : 300 300 300
P   max/avg/min : 101324.42 101324.42 101324.42
Prg max/avg/min : 101325 101325 101325
U   max/avg/min : 0 -2.0796126e-07 -2.0796126e-07
Prg max-min : 0
 
sngrad(rho) :-0.00013396979 -0.00013396979 -0.00013396979
 
Iteration Number = 17

DILUPBiCG:  Solving for Ux, Initial residual = 9.2648629e-05, Final residual = 0, No Iterations 1
DILUPBiCG:  Solving for Uy, Initial residual = 5.8023603e-10, Final residual = 5.8023603e-10, No Iterations 0
DILUPBiCG:  Solving for Uz, Initial residual = 0.99999994, Final residual = 0, No Iterations 1
DILUPBiCG:  Solving for h, Initial residual = 1, Final residual = 0, No Iterations 1
GAMG:  Solving for p_rgh, Initial residual = 1, Final residual = 0, No Iterations 1
time step continuity errors : sum local = 6.544973e-08, global = 6.544973e-08, cumulative = -1.5344066e-07
ExecutionTime = 0.16 s  ClockTime = 0 s
Inflow      : -9.3505899e-11 [kg/s]
Outflow     : -8.9866896e-11 [kg/s]
EnergyInflow  : -2.822008e-05 [W]
EnergyOutflow : -2.7121829e-05 [W]
EnergyBalance : 1.0982509e-06 [W]
rho max/avg/min : 1.176405 1.176405 1.176405
T   max/avg/min : 300 300 300
P   max/avg/min : 101324.42 101324.42 101324.42
Prg max/avg/min : 101325 101325 101325
U   max/avg/min : 0 -1.4017595e-07 -1.4295692e-07
Prg max-min : 0
 
sngrad(rho) :-0.00013397677 -0.00013397677 -0.00013397677
 
Iteration Number = 18

DILUPBiCG:  Solving for Ux, Initial residual = 3.6847089e-05, Final residual = 0, No Iterations 1
DILUPBiCG:  Solving for Uy, Initial residual = 7.3368802e-09, Final residual = 7.3368802e-09, No Iterations 0
DILUPBiCG:  Solving for Uz, Initial residual = 0.9999999, Final residual = 0, No Iterations 1
DILUPBiCG:  Solving for h, Initial residual = 1, Final residual = 0, No Iterations 1
GAMG:  Solving for p_rgh, Initial residual = 1, Final residual = 0, No Iterations 1
time step continuity errors : sum local = 1.2535669e-11, global = 1.2535669e-11, cumulative = -1.5342813e-07
ExecutionTime = 0.16 s  ClockTime = 0 s
Inflow      : -6.1194537e-11 [kg/s]
Outflow     : -6.119384e-11 [kg/s]
EnergyInflow  : -1.8468511e-05 [W]
EnergyOutflow : -1.8468301e-05 [W]
EnergyBalance : 2.1034937e-10 [W]
rho max/avg/min : 1.176405 1.176405 1.176405
T   max/avg/min : 300 300 300
P   max/avg/min : 101324.42 101324.42 101324.42
Prg max/avg/min : 101325 101325 101325
U   max/avg/min : 0 -9.3557548e-08 -9.3557548e-08
Prg max-min : 0
 
sngrad(rho) :-0.00013398029 -0.00013398029 -0.00013398029
 
Iteration Number = 19

DILUPBiCG:  Solving for Ux, Initial residual = 1.8153063e-05, Final residual = 0, No Iterations 1
DILUPBiCG:  Solving for Uy, Initial residual = 5.5102038e-09, Final residual = 5.5102038e-09, No Iterations 0
DILUPBiCG:  Solving for Uz, Initial residual = 0.99999986, Final residual = 0, No Iterations 1
DILUPBiCG:  Solving for h, Initial residual = 1, Final residual = 1.2761312e-16, No Iterations 1
GAMG:  Solving for p_rgh, Initial residual = 0, Final residual = 0, No Iterations 0
time step continuity errors : sum local = 8.3164125e-12, global = 8.3164125e-12, cumulative = -1.5341981e-07
ExecutionTime = 0.16 s  ClockTime = 0 s
Inflow      : -4.0597679e-11 [kg/s]
Outflow     : -4.0597217e-11 [kg/s]
EnergyInflow  : -1.225238e-05 [W]
EnergyOutflow : -1.225224e-05 [W]
EnergyBalance : 1.3954997e-10 [W]
rho max/avg/min : 1.176405 1.176405 1.176405
T   max/avg/min : 300 300 300
P   max/avg/min : 101324.42 101324.42 101324.42
Prg max/avg/min : 101325 101325 101325
U   max/avg/min : 0 -6.2067947e-08 -6.2067947e-08
Prg max-min : 0
 
sngrad(rho) :-0.00013398328 -0.00013398328 -0.00013398328
 
Iteration Number = 20

DILUPBiCG:  Solving for Ux, Initial residual = 6.8462537e-06, Final residual = 0, No Iterations 1
DILUPBiCG:  Solving for Uy, Initial residual = 9.8027038e-10, Final residual = 9.8027038e-10, No Iterations 0
DILUPBiCG:  Solving for Uz, Initial residual = 0.99999979, Final residual = 1.3292131e-16, No Iterations 1
DILUPBiCG:  Solving for h, Initial residual = 1, Final residual = 0, No Iterations 1
GAMG:  Solving for p_rgh, Initial residual = 0, Final residual = 0, No Iterations 0
time step continuity errors : sum local = 5.5173513e-12, global = 5.5173513e-12, cumulative = -1.534143e-07
ExecutionTime = 0.16 s  ClockTime = 0 s
Inflow      : -2.693368e-11 [kg/s]
Outflow     : -2.6933373e-11 [kg/s]
EnergyInflow  : -8.1285845e-06 [W]
EnergyOutflow : -8.1284919e-06 [W]
EnergyBalance : 9.2581531e-11 [W]
rho max/avg/min : 1.176405 1.176405 1.176405
T   max/avg/min : 300 300 300
P   max/avg/min : 101324.42 101324.42 101324.42
Prg max/avg/min : 101325 101325 101325
U   max/avg/min : 0 -4.1177679e-08 -4.1177679e-08
Prg max-min : 0
 
sngrad(rho) :-0.00013398516 -0.00013398516 -0.00013398516
 
Iteration Number = 21

DILUPBiCG:  Solving for Ux, Initial residual = 3.1882292e-06, Final residual = 0, No Iterations 1
DILUPBiCG:  Solving for Uy, Initial residual = 3.9893355e-10, Final residual = 3.9893355e-10, No Iterations 0
DILUPBiCG:  Solving for Uz, Initial residual = 0.99999968, Final residual = 0, No Iterations 1
DILUPBiCG:  Solving for h, Initial residual = 1, Final residual = 0, No Iterations 1
GAMG:  Solving for p_rgh, Initial residual = 1, Final residual = 1, No Iterations 1000
time step continuity errors : sum local = 6.5434981e-08, global = 6.5434981e-08, cumulative = -8.7979314e-08
ExecutionTime = 0.22 s  ClockTime = 0 s
Inflow      : -2.1506726e-11 [kg/s]
Outflow     : -1.7868544e-11 [kg/s]
EnergyInflow  : -6.49073e-06 [W]
EnergyOutflow : -5.3927265e-06 [W]
EnergyBalance : 1.0980034e-06 [W]
rho max/avg/min : 1.176405 1.176405 1.176405
T   max/avg/min : 300 300 300
P   max/avg/min : 101324.42 101324.42 101324.42
Prg max/avg/min : 101325 101325 101325
U   max/avg/min : 0 -3.0099687e-08 -3.2880657e-08
Prg max-min : 0
 
sngrad(rho) :-0.0001339864 -0.0001339864 -0.0001339864
 
Iteration Number = 22

DILUPBiCG:  Solving for Ux, Initial residual = 1.3329133e-06, Final residual = 0, No Iterations 1
DILUPBiCG:  Solving for Uy, Initial residual = 1.623475e-10, Final residual = 1.623475e-10, No Iterations 0
DILUPBiCG:  Solving for Uz, Initial residual = 0.99999929, Final residual = 0, No Iterations 1
DILUPBiCG:  Solving for h, Initial residual = 1, Final residual = 0, No Iterations 1
GAMG:  Solving for p_rgh, Initial residual = 0, Final residual = 0, No Iterations 0
time step continuity errors : sum local = 2.7512335e-12, global = 2.7512335e-12, cumulative = -8.7976563e-08
ExecutionTime = 0.22 s  ClockTime = 0 s
Inflow      : -1.3430514e-11 [kg/s]
Outflow     : -1.3430361e-11 [kg/s]
EnergyInflow  : -4.0533292e-06 [W]
EnergyOutflow : -4.053283e-06 [W]
EnergyBalance : 4.6165885e-11 [W]
rho max/avg/min : 1.176405 1.176405 1.176405
T   max/avg/min : 300 300 300
P   max/avg/min : 101324.42 101324.42 101324.42
Prg max/avg/min : 101325 101325 101325
U   max/avg/min : 0 -2.0533303e-08 -2.0533303e-08
Prg max-min : 0
 
sngrad(rho) :-0.00013398678 -0.00013398678 -0.00013398678
 
Iteration Number = 23

DILUPBiCG:  Solving for Ux, Initial residual = 7.526392e-07, Final residual = 7.526392e-07, No Iterations 0
DILUPBiCG:  Solving for Uy, Initial residual = 1.0127058e-09, Final residual = 1.0127058e-09, No Iterations 0
DILUPBiCG:  Solving for Uz, Initial residual = 0.99999869, Final residual = 0, No Iterations 1
DILUPBiCG:  Solving for h, Initial residual = 1, Final residual = 0, No Iterations 1
GAMG:  Solving for p_rgh, Initial residual = 1, Final residual = 0, No Iterations 1
time step continuity errors : sum local = 1.8560117e-12, global = 1.8560117e-12, cumulative = -8.7974707e-08
ExecutionTime = 0.22 s  ClockTime = 0 s
Inflow      : -9.0603188e-12 [kg/s]
Outflow     : -9.0602156e-12 [kg/s]
EnergyInflow  : -2.7344042e-06 [W]
EnergyOutflow : -2.7343731e-06 [W]
EnergyBalance : 3.1144003e-11 [W]
rho max/avg/min : 1.176405 1.176405 1.176405
T   max/avg/min : 300 300 300
P   max/avg/min : 101324.42 101324.42 101324.42
Prg max/avg/min : 101325 101325 101325
U   max/avg/min : 0 -1.385191e-08 -1.385191e-08
Prg max-min : 0
 
sngrad(rho) :-0.00013398733 -0.00013398733 -0.00013398733
 
Iteration Number = 24

DILUPBiCG:  Solving for Ux, Initial residual = 2.040203e-07, Final residual = 2.040203e-07, No Iterations 0
DILUPBiCG:  Solving for Uy, Initial residual = 7.2767791e-10, Final residual = 7.2767791e-10, No Iterations 0
DILUPBiCG:  Solving for Uz, Initial residual = 0.99999906, Final residual = 0, No Iterations 1
DILUPBiCG:  Solving for h, Initial residual = 1, Final residual = 0, No Iterations 1
GAMG:  Solving for p_rgh, Initial residual = 0, Final residual = 0, No Iterations 0
time step continuity errors : sum local = 1.2313542e-12, global = 1.2313542e-12, cumulative = -8.7973476e-08
ExecutionTime = 0.22 s  ClockTime = 0 s
Inflow      : -6.0110044e-12 [kg/s]
Outflow     : -6.010936e-12 [kg/s]
EnergyInflow  : -1.8141211e-06 [W]
EnergyOutflow : -1.8141005e-06 [W]
EnergyBalance : 2.0662207e-11 [W]
rho max/avg/min : 1.176405 1.176405 1.176405
T   max/avg/min : 300 300 300
P   max/avg/min : 101324.42 101324.42 101324.42
Prg max/avg/min : 101325 101325 101325
U   max/avg/min : 0 -9.1899516e-09 -9.1899516e-09
Prg max-min : 0
 
sngrad(rho) :-0.00013398799 -0.00013398799 -0.00013398799
 
Iteration Number = 25

DILUPBiCG:  Solving for Ux, Initial residual = 7.0816294e-08, Final residual = 7.0816294e-08, No Iterations 0
DILUPBiCG:  Solving for Uy, Initial residual = 2.9613782e-10, Final residual = 2.9613782e-10, No Iterations 0
DILUPBiCG:  Solving for Uz, Initial residual = 0.99999858, Final residual = 1.1222198e-16, No Iterations 1
DILUPBiCG:  Solving for h, Initial residual = 1, Final residual = 0, No Iterations 1
GAMG:  Solving for p_rgh, Initial residual = 1, Final residual = 0, No Iterations 1
time step continuity errors : sum local = 8.1693511e-13, global = 8.1693511e-13, cumulative = -8.7972659e-08
ExecutionTime = 0.22 s  ClockTime = 0 s
Inflow      : -3.9879664e-12 [kg/s]
Outflow     : -3.987921e-12 [kg/s]
EnergyInflow  : -1.2035683e-06 [W]
EnergyOutflow : -1.2035546e-06 [W]
EnergyBalance : 1.3708227e-11 [W]
rho max/avg/min : 1.176405 1.176405 1.176405
T   max/avg/min : 300 300 300
P   max/avg/min : 101324.42 101324.42 101324.42
Prg max/avg/min : 101325 101325 101325
U   max/avg/min : 0 -6.0970207e-09 -6.0970207e-09
Prg max-min : 0
 
sngrad(rho) :-0.00013398829 -0.00013398829 -0.00013398829
 
Iteration Number = 26

DILUPBiCG:  Solving for Ux, Initial residual = 6.6332359e-08, Final residual = 6.6332359e-08, No Iterations 0
DILUPBiCG:  Solving for Uy, Initial residual = 3.7255114e-11, Final residual = 3.7255114e-11, No Iterations 0
DILUPBiCG:  Solving for Uz, Initial residual = 0.99999922, Final residual = 0, No Iterations 1
DILUPBiCG:  Solving for h, Initial residual = 1, Final residual = 0, No Iterations 1
GAMG:  Solving for p_rgh, Initial residual = 1, Final residual = 0, No Iterations 1
time step continuity errors : sum local = 5.1127304e-13, global = 5.1127304e-13, cumulative = -8.7972147e-08
ExecutionTime = 0.22 s  ClockTime = 0 s
Inflow      : -2.495832e-12 [kg/s]
Outflow     : -2.4958036e-12 [kg/s]
EnergyInflow  : -7.532421e-07 [W]
EnergyOutflow : -7.5323352e-07 [W]
EnergyBalance : 8.5791963e-12 [W]
rho max/avg/min : 1.176405 1.176405 1.176405
T   max/avg/min : 300 300 300
P   max/avg/min : 101324.42 101324.42 101324.42
Prg max/avg/min : 101325 101325 101325
U   max/avg/min : 0 -3.8157642e-09 -3.8157642e-09
Prg max-min : 0
 
sngrad(rho) :-0.00013398874 -0.00013398874 -0.00013398874
 
Iteration Number = 27

DILUPBiCG:  Solving for Ux, Initial residual = 1.8664735e-08, Final residual = 1.8664735e-08, No Iterations 0
DILUPBiCG:  Solving for Uy, Initial residual = 6.3724646e-11, Final residual = 6.3724646e-11, No Iterations 0
DILUPBiCG:  Solving for Uz, Initial residual = 0.99999657, Final residual = 0, No Iterations 1
DILUPBiCG:  Solving for h, Initial residual = 0.99999999, Final residual = 0, No Iterations 1
GAMG:  Solving for p_rgh, Initial residual = 0, Final residual = 0, No Iterations 0
time step continuity errors : sum local = 3.3919884e-13, global = 3.3919884e-13, cumulative = -8.7971808e-08
ExecutionTime = 0.22 s  ClockTime = 0 s
Inflow      : -1.6558493e-12 [kg/s]
Outflow     : -1.6558304e-12 [kg/s]
EnergyInflow  : -4.9973532e-07 [W]
EnergyOutflow : -4.9972963e-07 [W]
EnergyBalance : 5.6917796e-12 [W]
rho max/avg/min : 1.176405 1.176405 1.176405
T   max/avg/min : 300 300 300
P   max/avg/min : 101324.42 101324.42 101324.42
Prg max/avg/min : 101325 101325 101325
U   max/avg/min : 0 -2.5315528e-09 -2.5315528e-09
Prg max-min : 0
 
sngrad(rho) :-0.00013398863 -0.00013398863 -0.00013398863
 
Iteration Number = 28

DILUPBiCG:  Solving for Ux, Initial residual = 2.7570921e-08, Final residual = 2.7570921e-08, No Iterations 0
DILUPBiCG:  Solving for Uy, Initial residual = 6.5376604e-11, Final residual = 6.5376604e-11, No Iterations 0
DILUPBiCG:  Solving for Uz, Initial residual = 0.99999484, Final residual = 0, No Iterations 1
DILUPBiCG:  Solving for h, Initial residual = 0.99999998, Final residual = 1.1122596e-16, No Iterations 1
GAMG:  Solving for p_rgh, Initial residual = 0, Final residual = 0, No Iterations 0
time step continuity errors : sum local = 2.2503166e-13, global = 2.2503166e-13, cumulative = -8.7971583e-08
ExecutionTime = 0.22 s  ClockTime = 0 s
Inflow      : -1.0985669e-12 [kg/s]
Outflow     : -1.0985544e-12 [kg/s]
EnergyInflow  : -3.3154749e-07 [W]
EnergyOutflow : -3.3154372e-07 [W]
EnergyBalance : 3.7760465e-12 [W]
rho max/avg/min : 1.176405 1.176405 1.176405
T   max/avg/min : 300 300 300
P   max/avg/min : 101324.42 101324.42 101324.42
Prg max/avg/min : 101325 101325 101325
U   max/avg/min : 0 -1.679549e-09 -1.679549e-09
Prg max-min : 0
 
sngrad(rho) :-0.00013398869 -0.00013398869 -0.00013398869
 
Iteration Number = 29

DILUPBiCG:  Solving for Ux, Initial residual = 3.2044551e-09, Final residual = 3.2044551e-09, No Iterations 0
DILUPBiCG:  Solving for Uy, Initial residual = 2.6605844e-11, Final residual = 2.6605844e-11, No Iterations 0
DILUPBiCG:  Solving for Uz, Initial residual = 0.99999222, Final residual = 0, No Iterations 1
DILUPBiCG:  Solving for h, Initial residual = 0.99999998, Final residual = 1.2370711e-16, No Iterations 1
GAMG:  Solving for p_rgh, Initial residual = 0, Final residual = 0, No Iterations 0
time step continuity errors : sum local = 1.4930326e-13, global = 1.4930326e-13, cumulative = -8.7971434e-08
ExecutionTime = 0.22 s  ClockTime = 0 s
Inflow      : -7.2884029e-13 [kg/s]
Outflow     : -7.2883199e-13 [kg/s]
EnergyInflow  : -2.19964e-07 [W]
EnergyOutflow : -2.1996149e-07 [W]
EnergyBalance : 2.5053189e-12 [W]
rho max/avg/min : 1.176405 1.176405 1.176405
T   max/avg/min : 300 300 300
P   max/avg/min : 101324.42 101324.42 101324.42
Prg max/avg/min : 101325 101325 101325
U   max/avg/min : 0 -1.1142908e-09 -1.1142908e-09
Prg max-min : 0
 
sngrad(rho) :-0.00013398873 -0.00013398873 -0.00013398873
 
Iteration Number = 30

DILUPBiCG:  Solving for Ux, Initial residual = 1.2613977e-09, Final residual = 1.2613977e-09, No Iterations 0
DILUPBiCG:  Solving for Uy, Initial residual = 5.0270633e-11, Final residual = 5.0270633e-11, No Iterations 0
DILUPBiCG:  Solving for Uz, Initial residual = 0.99998827, Final residual = 0, No Iterations 1
DILUPBiCG:  Solving for h, Initial residual = 0.99999996, Final residual = 0, No Iterations 1
GAMG:  Solving for p_rgh, Initial residual = 1, Final residual = 0, No Iterations 1
time step continuity errors : sum local = 9.9054108e-14, global = 9.9054108e-14, cumulative = -8.7971335e-08
ExecutionTime = 0.22 s  ClockTime = 0 s
Inflow      : -4.8354661e-13 [kg/s]
Outflow     : -4.835411e-13 [kg/s]
EnergyInflow  : -1.4593437e-07 [W]
EnergyOutflow : -1.459327e-07 [W]
EnergyBalance : 1.6621347e-12 [W]
rho max/avg/min : 1.176405 1.176405 1.176405
T   max/avg/min : 300 300 300
P   max/avg/min : 101324.42 101324.42 101324.42
Prg max/avg/min : 101325 101325 101325
U   max/avg/min : 0 -7.3927244e-10 -7.3927244e-10
Prg max-min : 0
 
sngrad(rho) :-0.00013398877 -0.00013398877 -0.00013398877
 
Iteration Number = 31

DILUPBiCG:  Solving for Ux, Initial residual = 6.6320127e-10, Final residual = 6.6320127e-10, No Iterations 0
DILUPBiCG:  Solving for Uy, Initial residual = 7.3675342e-13, Final residual = 7.3675342e-13, No Iterations 0
DILUPBiCG:  Solving for Uz, Initial residual = 0.99999867, Final residual = 0, No Iterations 1
DILUPBiCG:  Solving for h, Initial residual = 1, Final residual = 0, No Iterations 1
GAMG:  Solving for p_rgh, Initial residual = 1, Final residual = 0, No Iterations 1
time step continuity errors : sum local = 9.643887e-14, global = 9.643887e-14, cumulative = -8.7971238e-08
ExecutionTime = 0.23 s  ClockTime = 0 s
Inflow      : -4.707724e-13 [kg/s]
Outflow     : -4.7076704e-13 [kg/s]
EnergyInflow  : -1.4207911e-07 [W]
EnergyOutflow : -1.4207749e-07 [W]
EnergyBalance : 1.6182508e-12 [W]
rho max/avg/min : 1.176405 1.176405 1.176405
T   max/avg/min : 300 300 300
P   max/avg/min : 101324.42 101324.42 101324.42
Prg max/avg/min : 101325 101325 101325
U   max/avg/min : 0 -7.1974255e-10 -7.1974255e-10
Prg max-min : 0
 
sngrad(rho) :-0.00013398852 -0.00013398852 -0.00013398852
 
Iteration Number = 32

DILUPBiCG:  Solving for Ux, Initial residual = 2.4513974e-09, Final residual = 2.4513974e-09, No Iterations 0
DILUPBiCG:  Solving for Uy, Initial residual = 2.0021354e-11, Final residual = 2.0021354e-11, No Iterations 0
DILUPBiCG:  Solving for Uz, Initial residual = 0.99998184, Final residual = 0, No Iterations 1
DILUPBiCG:  Solving for h, Initial residual = 1, Final residual = 0, No Iterations 1
GAMG:  Solving for p_rgh, Initial residual = 1, Final residual = 0, No Iterations 1
time step continuity errors : sum local = 6.3982087e-14, global = 6.3982087e-14, cumulative = -8.7971174e-08
ExecutionTime = 0.23 s  ClockTime = 0 s
Inflow      : -3.123324e-13 [kg/s]
Outflow     : -3.1232884e-13 [kg/s]
EnergyInflow  : -9.4261918e-08 [W]
EnergyOutflow : -9.4260845e-08 [W]
EnergyBalance : 1.0736238e-12 [W]
rho max/avg/min : 1.176405 1.176405 1.176405
T   max/avg/min : 300 300 300
P   max/avg/min : 101324.42 101324.42 101324.42
Prg max/avg/min : 101325 101325 101325
U   max/avg/min : 0 -4.7751082e-10 -4.7751082e-10
Prg max-min : 0
 
sngrad(rho) :-0.00013398877 -0.00013398877 -0.00013398877
 
Iteration Number = 33

DILUPBiCG:  Solving for Ux, Initial residual = 2.6666774e-09, Final residual = 2.6666774e-09, No Iterations 0
DILUPBiCG:  Solving for Uy, Initial residual = 8.1479456e-12, Final residual = 8.1479456e-12, No Iterations 0
DILUPBiCG:  Solving for Uz, Initial residual = 0.99999882, Final residual = 0, No Iterations 1
DILUPBiCG:  Solving for h, Initial residual = 1, Final residual = 0, No Iterations 1
GAMG:  Solving for p_rgh, Initial residual = 1, Final residual = 0, No Iterations 1
time step continuity errors : sum local = 1.172622e-14, global = 1.172622e-14, cumulative = -8.7971163e-08
ExecutionTime = 0.23 s  ClockTime = 0 s
Inflow      : -5.725092e-14 [kg/s]
Outflow     : -5.7250268e-14 [kg/s]
EnergyInflow  : -1.7278328e-08 [W]
EnergyOutflow : -1.7278131e-08 [W]
EnergyBalance : 1.9676677e-13 [W]
rho max/avg/min : 1.176405 1.176405 1.176405
T   max/avg/min : 300 300 300
P   max/avg/min : 101324.42 101324.42 101324.42
Prg max/avg/min : 101325 101325 101325
U   max/avg/min : 0 -8.7528331e-11 -8.7528331e-11
Prg max-min : 0
 
sngrad(rho) :-0.00013398907 -0.00013398907 -0.00013398907
 
Iteration Number = 34

DILUPBiCG:  Solving for Ux, Initial residual = 3.0963359e-10, Final residual = 3.0963359e-10, No Iterations 0
DILUPBiCG:  Solving for Uy, Initial residual = 8.5072018e-13, Final residual = 8.5072018e-13, No Iterations 0
DILUPBiCG:  Solving for Uz, Initial residual = 0.99985066, Final residual = 0, No Iterations 1
DILUPBiCG:  Solving for h, Initial residual = 0.99999999, Final residual = 0, No Iterations 1
GAMG:  Solving for p_rgh, Initial residual = 0, Final residual = 0, No Iterations 0
time step continuity errors : sum local = 7.7783771e-15, global = 7.7783771e-15, cumulative = -8.7971155e-08
ExecutionTime = 0.24 s  ClockTime = 0 s
Inflow      : -3.7982945e-14 [kg/s]
Outflow     : -3.7982512e-14 [kg/s]
EnergyInflow  : -1.1463253e-08 [W]
EnergyOutflow : -1.1463122e-08 [W]
EnergyBalance : 1.305217e-13 [W]
rho max/avg/min : 1.176405 1.176405 1.176405
T   max/avg/min : 300 300 300
P   max/avg/min : 101324.42 101324.42 101324.42
Prg max/avg/min : 101325 101325 101325
U   max/avg/min : 0 -5.8070399e-11 -5.8070399e-11
Prg max-min : 0
 
sngrad(rho) :-0.00013398885 -0.00013398885 -0.00013398885
 
Iteration Number = 35

DILUPBiCG:  Solving for Ux, Initial residual = 5.267156e-10, Final residual = 5.267156e-10, No Iterations 0
DILUPBiCG:  Solving for Uy, Initial residual = 1.5788066e-12, Final residual = 1.5788066e-12, No Iterations 0
DILUPBiCG:  Solving for Uz, Initial residual = 0.99977492, Final residual = 0, No Iterations 1
DILUPBiCG:  Solving for h, Initial residual = 0.99999994, Final residual = 0, No Iterations 1
GAMG:  Solving for p_rgh, Initial residual = 1, Final residual = 1, No Iterations 1000
time step continuity errors : sum local = 6.5431315e-08, global = -6.5431315e-08, cumulative = -1.5340247e-07
ExecutionTime = 0.29 s  ClockTime = 0 s
Inflow      : 3.6127791e-12 [kg/s]
Outflow     : -2.519938e-14 [kg/s]
EnergyInflow  : 1.0903367e-06 [W]
EnergyOutflow : -7.6051729e-09 [W]
EnergyBalance : -1.0979419e-06 [W]
rho max/avg/min : 1.176405 1.176405 1.176405
T   max/avg/min : 300 300 300
P   max/avg/min : 101324.42 101324.42 101324.42
Prg max/avg/min : 101325 101325 101325
U   max/avg/min : 5.5234139e-09 2.7424437e-09 0
Prg max-min : 0
 
sngrad(rho) :-0.00013398883 -0.00013398883 -0.00013398883
 
Iteration Number = 36

DILUPBiCG:  Solving for Ux, Initial residual = 1.2641443e-09, Final residual = 1.2641443e-09, No Iterations 0
DILUPBiCG:  Solving for Uy, Initial residual = 1.8751154e-12, Final residual = 1.8751154e-12, No Iterations 0
DILUPBiCG:  Solving for Uz, Initial residual = 0.99999852, Final residual = 0, No Iterations 1
DILUPBiCG:  Solving for h, Initial residual = 1, Final residual = 0, No Iterations 1
GAMG:  Solving for p_rgh, Initial residual = 1, Final residual = 0, No Iterations 1
time step continuity errors : sum local = 3.1937587e-13, global = -3.1937587e-13, cumulative = -1.5340279e-07
ExecutionTime = 0.29 s  ClockTime = 0 s
Inflow      : 1.559025e-12 [kg/s]
Outflow     : 1.5590073e-12 [kg/s]
EnergyInflow  : 4.7051375e-07 [W]
EnergyOutflow : 4.7050839e-07 [W]
EnergyBalance : -5.3591488e-12 [W]
rho max/avg/min : 1.176405 1.176405 1.176405
T   max/avg/min : 300 300 300
P   max/avg/min : 101324.42 101324.42 101324.42
Prg max/avg/min : 101325 101325 101325
U   max/avg/min : 2.3835226e-09 2.3835226e-09 0
Prg max-min : 0
 
sngrad(rho) :-0.00013398927 -0.00013398927 -0.00013398927
 
Iteration Number = 37

DILUPBiCG:  Solving for Ux, Initial residual = 8.1748878e-10, Final residual = 8.1748878e-10, No Iterations 0
DILUPBiCG:  Solving for Uy, Initial residual = 8.1556044e-13, Final residual = 8.1556044e-13, No Iterations 0
DILUPBiCG:  Solving for Uz, Initial residual = 0.99999146, Final residual = 0, No Iterations 1
DILUPBiCG:  Solving for h, Initial residual = 0.99999998, Final residual = 0, No Iterations 1
GAMG:  Solving for p_rgh, Initial residual = 0, Final residual = 0, No Iterations 0
time step continuity errors : sum local = 2.3510292e-13, global = -2.3510292e-13, cumulative = -1.5340302e-07
ExecutionTime = 0.3 s  ClockTime = 0 s
Inflow      : 1.1477424e-12 [kg/s]
Outflow     : 1.1477293e-12 [kg/s]
EnergyInflow  : 3.4638866e-07 [W]
EnergyOutflow : 3.4638471e-07 [W]
EnergyBalance : -3.9450494e-12 [W]
rho max/avg/min : 1.176405 1.176405 1.176405
T   max/avg/min : 300 300 300
P   max/avg/min : 101324.42 101324.42 101324.42
Prg max/avg/min : 101325 101325 101325
U   max/avg/min : 1.7547312e-09 1.7547312e-09 0
Prg max-min : 0
 
sngrad(rho) :-0.00013398871 -0.00013398871 -0.00013398871
 
Iteration Number = 38

DILUPBiCG:  Solving for Ux, Initial residual = 4.3860029e-07, Final residual = 4.3860029e-07, No Iterations 0
DILUPBiCG:  Solving for Uy, Initial residual = 1.9357427e-13, Final residual = 1.9357427e-13, No Iterations 0
DILUPBiCG:  Solving for Uz, Initial residual = 0.9999884, Final residual = 1.143785e-16, No Iterations 1
DILUPBiCG:  Solving for h, Initial residual = 0.99999997, Final residual = 0, No Iterations 1
GAMG:  Solving for p_rgh, Initial residual = 0, Final residual = 0, No Iterations 0
time step continuity errors : sum local = 1.7308857e-13, global = -1.7308857e-13, cumulative = -1.534032e-07
ExecutionTime = 0.3 s  ClockTime = 0 s
Inflow      : 8.4495912e-13 [kg/s]
Outflow     : 8.449495e-13 [kg/s]
EnergyInflow  : 2.5500866e-07 [W]
EnergyOutflow : 2.5500576e-07 [W]
EnergyBalance : -2.9044414e-12 [W]
rho max/avg/min : 1.176405 1.176405 1.176405
T   max/avg/min : 300 300 300
P   max/avg/min : 101324.42 101324.42 101324.42
Prg max/avg/min : 101325 101325 101325
U   max/avg/min : 1.2918196e-09 1.2918196e-09 0
Prg max-min : 0
 
sngrad(rho) :-0.00013398875 -0.00013398875 -0.00013398875
 
Iteration Number = 39

DILUPBiCG:  Solving for Ux, Initial residual = 1.1244133e-07, Final residual = 1.1244133e-07, No Iterations 0
DILUPBiCG:  Solving for Uy, Initial residual = 4.5945079e-14, Final residual = 4.5945079e-14, No Iterations 0
DILUPBiCG:  Solving for Uz, Initial residual = 0.99998424, Final residual = 1.5536434e-16, No Iterations 1
DILUPBiCG:  Solving for h, Initial residual = 0.99999996, Final residual = 0, No Iterations 1
GAMG:  Solving for p_rgh, Initial residual = 0, Final residual = 0, No Iterations 0
time step continuity errors : sum local = 1.2742358e-13, global = -1.2742358e-13, cumulative = -1.5340333e-07
ExecutionTime = 0.3 s  ClockTime = 0 s
Inflow      : 6.2205233e-13 [kg/s]
Outflow     : 6.2204525e-13 [kg/s]
EnergyInflow  : 1.8773539e-07 [W]
EnergyOutflow : 1.8773326e-07 [W]
EnergyBalance : -2.1381782e-12 [W]
rho max/avg/min : 1.176405 1.176405 1.176405
T   max/avg/min : 300 300 300
P   max/avg/min : 101324.42 101324.42 101324.42
Prg max/avg/min : 101325 101325 101325
U   max/avg/min : 9.5102755e-10 9.5102755e-10 0
Prg max-min : 0
 
sngrad(rho) :-0.00013398877 -0.00013398877 -0.00013398877
 
Iteration Number = 40

DILUPBiCG:  Solving for Ux, Initial residual = 1.3071724e-07, Final residual = 1.3071724e-07, No Iterations 0
DILUPBiCG:  Solving for Uy, Initial residual = 1.0905114e-14, Final residual = 1.0905114e-14, No Iterations 0
DILUPBiCG:  Solving for Uz, Initial residual = 0.9999786, Final residual = 0, No Iterations 1
DILUPBiCG:  Solving for h, Initial residual = 0.99999995, Final residual = 0, No Iterations 1
GAMG:  Solving for p_rgh, Initial residual = 1, Final residual = 0, No Iterations 1
time step continuity errors : sum local = 9.3802831e-14, global = -9.3802831e-14, cumulative = -1.5340342e-07
ExecutionTime = 0.3 s  ClockTime = 0 s
Inflow      : 4.5795004e-13 [kg/s]
Outflow     : 4.5794483e-13 [kg/s]
EnergyInflow  : 1.3820932e-07 [W]
EnergyOutflow : 1.3820775e-07 [W]
EnergyBalance : -1.5740189e-12 [W]
rho max/avg/min : 1.176405 1.176405 1.176405
T   max/avg/min : 300 300 300
P   max/avg/min : 101324.42 101324.42 101324.42
Prg max/avg/min : 101325 101325 101325
U   max/avg/min : 7.0013902e-10 7.0013902e-10 0
Prg max-min : 0
 
sngrad(rho) :-0.00013398879 -0.00013398879 -0.00013398879
 
Iteration Number = 41

DILUPBiCG:  Solving for Ux, Initial residual = 8.5565242e-08, Final residual = 8.5565242e-08, No Iterations 0
DILUPBiCG:  Solving for Uy, Initial residual = 2.5883369e-15, Final residual = 2.5883369e-15, No Iterations 0
DILUPBiCG:  Solving for Uz, Initial residual = 0.99999871, Final residual = 0, No Iterations 1
DILUPBiCG:  Solving for h, Initial residual = 1, Final residual = 0, No Iterations 1
GAMG:  Solving for p_rgh, Initial residual = 0, Final residual = 0, No Iterations 0
time step continuity errors : sum local = 1.141677e-13, global = -1.141677e-13, cumulative = -1.5340353e-07
ExecutionTime = 0.3 s  ClockTime = 0 s
Inflow      : 5.5735466e-13 [kg/s]
Outflow     : 5.5734831e-13 [kg/s]
EnergyInflow  : 1.6820964e-07 [W]
EnergyOutflow : 1.6820772e-07 [W]
EnergyBalance : -1.9157426e-12 [W]
rho max/avg/min : 1.176405 1.176405 1.176405
T   max/avg/min : 300 300 300
P   max/avg/min : 101324.42 101324.42 101324.42
Prg max/avg/min : 101325 101325 101325
U   max/avg/min : 8.5211422e-10 8.5211422e-10 0
Prg max-min : 0
 
sngrad(rho) :-0.00013398946 -0.00013398946 -0.00013398946
 
Iteration Number = 42

DILUPBiCG:  Solving for Ux, Initial residual = 2.5667039e-08, Final residual = 2.5667039e-08, No Iterations 0
DILUPBiCG:  Solving for Uy, Initial residual = 6.1433209e-16, Final residual = 6.1433209e-16, No Iterations 0
DILUPBiCG:  Solving for Uz, Initial residual = 0.9999987, Final residual = 0, No Iterations 1
DILUPBiCG:  Solving for h, Initial residual = 0.99999997, Final residual = 0, No Iterations 1
GAMG:  Solving for p_rgh, Initial residual = 0, Final residual = 0, No Iterations 0
time step continuity errors : sum local = 1.2916089e-13, global = -1.2916089e-13, cumulative = -1.5340366e-07
ExecutionTime = 0.3 s  ClockTime = 0 s
Inflow      : 6.3053552e-13 [kg/s]
Outflow     : 6.3052834e-13 [kg/s]
EnergyInflow  : 1.9029562e-07 [W]
EnergyOutflow : 1.9029345e-07 [W]
EnergyBalance : -2.1673345e-12 [W]
rho max/avg/min : 1.176405 1.176405 1.176405
T   max/avg/min : 300 300 300
P   max/avg/min : 101324.42 101324.42 101324.42
Prg max/avg/min : 101325 101325 101325
U   max/avg/min : 9.6399712e-10 9.6399712e-10 0
Prg max-min : 0
 
sngrad(rho) :-0.00013398891 -0.00013398891 -0.00013398891
 
Iteration Number = 43

DILUPBiCG:  Solving for Ux, Initial residual = 3.5093028e-07, Final residual = 3.5093028e-07, No Iterations 0
DILUPBiCG:  Solving for Uy, Initial residual = 1.4582714e-16, Final residual = 1.4582714e-16, No Iterations 0
DILUPBiCG:  Solving for Uz, Initial residual = 0.99999869, Final residual = 0, No Iterations 1
DILUPBiCG:  Solving for h, Initial residual = 0.99999988, Final residual = 0, No Iterations 1
GAMG:  Solving for p_rgh, Initial residual = 1, Final residual = 0, No Iterations 1
time step continuity errors : sum local = 1.4020258e-13, global = -1.4020258e-13, cumulative = -1.534038e-07
ExecutionTime = 0.3 s  ClockTime = 0 s
Inflow      : 6.8441068e-13 [kg/s]
Outflow     : 6.8440288e-13 [kg/s]
EnergyInflow  : 2.0655514e-07 [W]
EnergyOutflow : 2.0655279e-07 [W]
EnergyBalance : -2.352616e-12 [W]
rho max/avg/min : 1.176405 1.176405 1.176405
T   max/avg/min : 300 300 300
P   max/avg/min : 101324.42 101324.42 101324.42
Prg max/avg/min : 101325 101325 101325
U   max/avg/min : 1.0463644e-09 1.0463644e-09 0
Prg max-min : 0
 
sngrad(rho) :-0.00013398885 -0.00013398885 -0.00013398885
 
Iteration Number = 44

DILUPBiCG:  Solving for Ux, Initial residual = 1.6019849e-07, Final residual = 1.6019849e-07, No Iterations 0
DILUPBiCG:  Solving for Uy, Initial residual = 3.4612385e-17, Final residual = 3.4612385e-17, No Iterations 0
DILUPBiCG:  Solving for Uz, Initial residual = 0.99998055, Final residual = 0, No Iterations 1
DILUPBiCG:  Solving for h, Initial residual = 1, Final residual = 1.4740445e-16, No Iterations 1
GAMG:  Solving for p_rgh, Initial residual = 1, Final residual = 0, No Iterations 1
time step continuity errors : sum local = 1.0321321e-13, global = -1.0321321e-13, cumulative = -1.5340391e-07
ExecutionTime = 0.31 s  ClockTime = 0 s
Inflow      : 5.0385778e-13 [kg/s]
Outflow     : 5.0385205e-13 [kg/s]
EnergyInflow  : 1.5206428e-07 [W]
EnergyOutflow : 1.5206255e-07 [W]
EnergyBalance : -1.7319301e-12 [W]
rho max/avg/min : 1.176405 1.176405 1.176405
T   max/avg/min : 300 300 300
P   max/avg/min : 101324.42 101324.42 101324.42
Prg max/avg/min : 101325 101325 101325
U   max/avg/min : 7.7032528e-10 7.7032528e-10 0
Prg max-min : 0
 
sngrad(rho) :-0.00013398819 -0.00013398819 -0.00013398819
 
Iteration Number = 45

DILUPBiCG:  Solving for Ux, Initial residual = 8.8079023e-08, Final residual = 8.8079023e-08, No Iterations 0
DILUPBiCG:  Solving for Uy, Initial residual = 8.21483e-18, Final residual = 8.21483e-18, No Iterations 0
DILUPBiCG:  Solving for Uz, Initial residual = 0.99999882, Final residual = 0, No Iterations 1
DILUPBiCG:  Solving for h, Initial residual = 1, Final residual = 0, No Iterations 1
GAMG:  Solving for p_rgh, Initial residual = 0, Final residual = 0, No Iterations 0
time step continuity errors : sum local = 3.0874767e-14, global = -3.0874767e-14, cumulative = -1.5340394e-07
ExecutionTime = 0.31 s  ClockTime = 0 s
Inflow      : 1.507207e-13 [kg/s]
Outflow     : 1.5071898e-13 [kg/s]
EnergyInflow  : 4.5487507e-08 [W]
EnergyOutflow : 4.5486989e-08 [W]
EnergyBalance : -5.1808108e-13 [W]
rho max/avg/min : 1.176405 1.176405 1.176405
T   max/avg/min : 300 300 300
P   max/avg/min : 101324.42 101324.42 101324.42
Prg max/avg/min : 101325 101325 101325
U   max/avg/min : 2.3043003e-10 2.3043003e-10 0
Prg max-min : 0
 
sngrad(rho) :-0.00013398808 -0.00013398808 -0.00013398808
 
Iteration Number = 46

DILUPBiCG:  Solving for Ux, Initial residual = 3.7004966e-07, Final residual = 3.7004966e-07, No Iterations 0
DILUPBiCG:  Solving for Uy, Initial residual = 1.9507466e-18, Final residual = 1.9507466e-18, No Iterations 0
DILUPBiCG:  Solving for Uz, Initial residual = 0.99999878, Final residual = 0, No Iterations 1
DILUPBiCG:  Solving for h, Initial residual = 0.99999998, Final residual = 0, No Iterations 1
GAMG:  Solving for p_rgh, Initial residual = 1, Final residual = 0, No Iterations 1
time step continuity errors : sum local = 2.238105e-14, global = 2.238105e-14, cumulative = -1.5340391e-07
ExecutionTime = 0.31 s  ClockTime = 0 s
Inflow      : -1.0925622e-13 [kg/s]
Outflow     : -1.0925497e-13 [kg/s]
EnergyInflow  : -3.2973526e-08 [W]
EnergyOutflow : -3.2973151e-08 [W]
EnergyBalance : 3.7555477e-13 [W]
rho max/avg/min : 1.176405 1.176405 1.176405
T   max/avg/min : 300 300 300
P   max/avg/min : 101324.42 101324.42 101324.42
Prg max/avg/min : 101325 101325 101325
U   max/avg/min : 0 -1.6703687e-10 -1.6703687e-10
Prg max-min : 0
 
sngrad(rho) :-0.0001339887 -0.0001339887 -0.0001339887
 
Iteration Number = 47

DILUPBiCG:  Solving for Ux, Initial residual = 6.8422914e-08, Final residual = 6.8422914e-08, No Iterations 0
DILUPBiCG:  Solving for Uy, Initial residual = 4.9303802e-12, Final residual = 4.9303802e-12, No Iterations 0
DILUPBiCG:  Solving for Uz, Initial residual = 0.99992174, Final residual = 0, No Iterations 1
DILUPBiCG:  Solving for h, Initial residual = 1, Final residual = 0, No Iterations 1
GAMG:  Solving for p_rgh, Initial residual = 0, Final residual = 0, No Iterations 0
time step continuity errors : sum local = 1.4841639e-14, global = 1.4841639e-14, cumulative = -1.534039e-07
ExecutionTime = 0.31 s  ClockTime = 0 s
Inflow      : -7.2485694e-14 [kg/s]
Outflow     : -7.2484869e-14 [kg/s]
EnergyInflow  : -2.1876183e-08 [W]
EnergyOutflow : -2.1875933e-08 [W]
EnergyBalance : 2.4904371e-13 [W]
rho max/avg/min : 1.176405 1.176405 1.176405
T   max/avg/min : 300 300 300
P   max/avg/min : 101324.42 101324.42 101324.42
Prg max/avg/min : 101325 101325 101325
U   max/avg/min : 0 -1.1082009e-10 -1.1082009e-10
Prg max-min : 0
 
sngrad(rho) :-0.00013398876 -0.00013398876 -0.00013398876
 
Iteration Number = 48

DILUPBiCG:  Solving for Ux, Initial residual = 7.0447789e-08, Final residual = 7.0447789e-08, No Iterations 0
DILUPBiCG:  Solving for Uy, Initial residual = 5.3890898e-12, Final residual = 5.3890898e-12, No Iterations 0
DILUPBiCG:  Solving for Uz, Initial residual = 0.99988204, Final residual = 1.4539365e-16, No Iterations 1
DILUPBiCG:  Solving for h, Initial residual = 0.99999998, Final residual = 0, No Iterations 1
GAMG:  Solving for p_rgh, Initial residual = 1, Final residual = 0, No Iterations 1
time step continuity errors : sum local = 9.8420574e-15, global = 9.8420574e-15, cumulative = -1.5340389e-07
ExecutionTime = 0.31 s  ClockTime = 0 s
Inflow      : -4.8090408e-14 [kg/s]
Outflow     : -4.8089861e-14 [kg/s]
EnergyInflow  : -1.4513685e-08 [W]
EnergyOutflow : -1.451352e-08 [W]
EnergyBalance : 1.6515039e-13 [W]
rho max/avg/min : 1.176405 1.176405 1.176405
T   max/avg/min : 300 300 300
P   max/avg/min : 101324.42 101324.42 101324.42
Prg max/avg/min : 101325 101325 101325
U   max/avg/min : 0 -7.3523241e-11 -7.3523241e-11
Prg max-min : 0
 
sngrad(rho) :-0.00013398882 -0.00013398882 -0.00013398882
 
Iteration Number = 49

DILUPBiCG:  Solving for Ux, Initial residual = 1.9418082e-08, Final residual = 1.9418082e-08, No Iterations 0
DILUPBiCG:  Solving for Uy, Initial residual = 1.5046266e-12, Final residual = 1.5046266e-12, No Iterations 0
DILUPBiCG:  Solving for Uz, Initial residual = 0.99999877, Final residual = 0, No Iterations 1
DILUPBiCG:  Solving for h, Initial residual = 1, Final residual = 0, No Iterations 1
GAMG:  Solving for p_rgh, Initial residual = 1, Final residual = 0, No Iterations 1
time step continuity errors : sum local = 2.418246e-14, global = -2.418246e-14, cumulative = -1.5340391e-07
ExecutionTime = 0.31 s  ClockTime = 0 s
Inflow      : 1.1805957e-13 [kg/s]
Outflow     : 1.1805823e-13 [kg/s]
EnergyInflow  : 3.5630379e-08 [W]
EnergyOutflow : 3.5629973e-08 [W]
EnergyBalance : -4.0578332e-13 [W]
rho max/avg/min : 1.176405 1.176405 1.176405
T   max/avg/min : 300 300 300
P   max/avg/min : 101324.42 101324.42 101324.42
Prg max/avg/min : 101325 101325 101325
U   max/avg/min : 1.8049592e-10 1.8049592e-10 0
Prg max-min : 0
 
sngrad(rho) :-0.0001339891 -0.0001339891 -0.0001339891
 
Iteration Number = 50

DILUPBiCG:  Solving for Ux, Initial residual = 4.6105909e-09, Final residual = 4.6105909e-09, No Iterations 0
DILUPBiCG:  Solving for Uy, Initial residual = 6.6290814e-13, Final residual = 6.6290814e-13, No Iterations 0
DILUPBiCG:  Solving for Uz, Initial residual = 0.99988725, Final residual = 0, No Iterations 1
DILUPBiCG:  Solving for h, Initial residual = 0.99999999, Final residual = 0, No Iterations 1
GAMG:  Solving for p_rgh, Initial residual = 0, Final residual = 0, No Iterations 0
time step continuity errors : sum local = 1.7798188e-14, global = -1.7798188e-14, cumulative = -1.5340393e-07
ExecutionTime = 0.31 s  ClockTime = 0 s
Inflow      : 8.6914514e-14 [kg/s]
Outflow     : 8.6913524e-14 [kg/s]
EnergyInflow  : 2.62308e-08 [W]
EnergyOutflow : 2.6230502e-08 [W]
EnergyBalance : -2.986551e-13 [W]
rho max/avg/min : 1.176405 1.176405 1.176405
T   max/avg/min : 300 300 300
P   max/avg/min : 101324.42 101324.42 101324.42
Prg max/avg/min : 101325 101325 101325
U   max/avg/min : 1.3287965e-10 1.3287965e-10 0
Prg max-min : 0
 
sngrad(rho) :-0.00013398861 -0.00013398861 -0.00013398861
 
Iteration Number = 51

DILUPBiCG:  Solving for Ux, Initial residual = 1.931454e-08, Final residual = 1.931454e-08, No Iterations 0
DILUPBiCG:  Solving for Uy, Initial residual = 1.5734185e-13, Final residual = 1.5734185e-13, No Iterations 0
DILUPBiCG:  Solving for Uz, Initial residual = 0.99984685, Final residual = 0, No Iterations 1
DILUPBiCG:  Solving for h, Initial residual = 0.99999991, Final residual = 0, No Iterations 1
GAMG:  Solving for p_rgh, Initial residual = 0, Final residual = 0, No Iterations 0
time step continuity errors : sum local = 1.310052e-14, global = -1.310052e-14, cumulative = -1.5340394e-07
ExecutionTime = 0.31 s  ClockTime = 0 s
Inflow      : 6.398577e-14 [kg/s]
Outflow     : 6.3985042e-14 [kg/s]
EnergyInflow  : 1.9310905e-08 [W]
EnergyOutflow : 1.9310686e-08 [W]
EnergyBalance : -2.1982766e-13 [W]
rho max/avg/min : 1.176405 1.176405 1.176405
T   max/avg/min : 300 300 300
P   max/avg/min : 101324.42 101324.42 101324.42
Prg max/avg/min : 101325 101325 101325
U   max/avg/min : 9.7824938e-11 9.7824938e-11 0
Prg max-min : 0
 
sngrad(rho) :-0.00013398881 -0.00013398881 -0.00013398881
 
Iteration Number = 52

DILUPBiCG:  Solving for Ux, Initial residual = 1.3476352e-08, Final residual = 1.3476352e-08, No Iterations 0
DILUPBiCG:  Solving for Uy, Initial residual = 3.7345231e-14, Final residual = 3.7345231e-14, No Iterations 0
DILUPBiCG:  Solving for Uz, Initial residual = 0.99979198, Final residual = 1.2820358e-16, No Iterations 1
DILUPBiCG:  Solving for h, Initial residual = 0.99999964, Final residual = 0, No Iterations 1
GAMG:  Solving for p_rgh, Initial residual = 0, Final residual = 0, No Iterations 0
time step continuity errors : sum local = 9.6461554e-15, global = -9.6461554e-15, cumulative = -1.5340395e-07
ExecutionTime = 0.31 s  ClockTime = 0 s
Inflow      : 4.7105812e-14 [kg/s]
Outflow     : 4.7105275e-14 [kg/s]
EnergyInflow  : 1.4216534e-08 [W]
EnergyOutflow : 1.4216372e-08 [W]
EnergyBalance : -1.6186315e-13 [W]
rho max/avg/min : 1.176405 1.176405 1.176405
T   max/avg/min : 300 300 300
P   max/avg/min : 101324.42 101324.42 101324.42
Prg max/avg/min : 101325 101325 101325
U   max/avg/min : 7.2017936e-11 7.2017936e-11 0
Prg max-min : 0
 
sngrad(rho) :-0.00013398883 -0.00013398883 -0.00013398883
 
Iteration Number = 53

DILUPBiCG:  Solving for Ux, Initial residual = 4.7605979e-09, Final residual = 4.7605979e-09, No Iterations 0
DILUPBiCG:  Solving for Uy, Initial residual = 8.863927e-15, Final residual = 8.863927e-15, No Iterations 0
DILUPBiCG:  Solving for Uz, Initial residual = 0.99971746, Final residual = 0, No Iterations 1
DILUPBiCG:  Solving for h, Initial residual = 0.99999933, Final residual = 0, No Iterations 1
GAMG:  Solving for p_rgh, Initial residual = 0, Final residual = 0, No Iterations 0
time step continuity errors : sum local = 7.1132482e-15, global = -7.1132482e-15, cumulative = -1.5340396e-07
ExecutionTime = 0.31 s  ClockTime = 0 s
Inflow      : 3.4678921e-14 [kg/s]
Outflow     : 3.4678526e-14 [kg/s]
EnergyInflow  : 1.0466098e-08 [W]
EnergyOutflow : 1.0465979e-08 [W]
EnergyBalance : -1.1936079e-13 [W]
rho max/avg/min : 1.176405 1.176405 1.176405
T   max/avg/min : 300 300 300
P   max/avg/min : 101324.42 101324.42 101324.42
Prg max/avg/min : 101325 101325 101325
U   max/avg/min : 5.3019028e-11 5.3019027e-11 0
Prg max-min : 0
 
sngrad(rho) :-0.00013398883 -0.00013398883 -0.00013398883
 
Iteration Number = 54

DILUPBiCG:  Solving for Ux, Initial residual = 1.4536357e-09, Final residual = 1.4536357e-09, No Iterations 0
DILUPBiCG:  Solving for Uy, Initial residual = 2.1038888e-15, Final residual = 2.1038888e-15, No Iterations 0
DILUPBiCG:  Solving for Uz, Initial residual = 0.99961625, Final residual = 0, No Iterations 1
DILUPBiCG:  Solving for h, Initial residual = 0.99999905, Final residual = 0, No Iterations 1
GAMG:  Solving for p_rgh, Initial residual = 0, Final residual = 0, No Iterations 0
time step continuity errors : sum local = 5.2332583e-15, global = -5.2332583e-15, cumulative = -1.5340397e-07
ExecutionTime = 0.31 s  ClockTime = 0 s
Inflow      : 2.5530344e-14 [kg/s]
Outflow     : 2.5530053e-14 [kg/s]
EnergyInflow  : 7.7050578e-09 [W]
EnergyOutflow : 7.70497e-09 [W]
EnergyBalance : -8.7814433e-14 [W]
rho max/avg/min : 1.176405 1.176405 1.176405
T   max/avg/min : 300 300 300
P   max/avg/min : 101324.42 101324.42 101324.42
Prg max/avg/min : 101325 101325 101325
U   max/avg/min : 3.9032183e-11 3.9032183e-11 0
Prg max-min : 0
 
sngrad(rho) :-0.00013398883 -0.00013398883 -0.00013398883
 
Iteration Number = 55

DILUPBiCG:  Solving for Ux, Initial residual = 5.0078908e-10, Final residual = 5.0078908e-10, No Iterations 0
DILUPBiCG:  Solving for Uy, Initial residual = 4.9933219e-16, Final residual = 4.9933219e-16, No Iterations 0
DILUPBiCG:  Solving for Uz, Initial residual = 0.9994788, Final residual = 0, No Iterations 1
DILUPBiCG:  Solving for h, Initial residual = 0.9999987, Final residual = 0, No Iterations 1
GAMG:  Solving for p_rgh, Initial residual = 1, Final residual = 0, No Iterations 1
time step continuity errors : sum local = 3.8518313e-15, global = -3.8518313e-15, cumulative = -1.5340397e-07
ExecutionTime = 0.31 s  ClockTime = 0 s
Inflow      : 1.8795234e-14 [kg/s]
Outflow     : 1.879502e-14 [kg/s]
EnergyInflow  : 5.6724018e-09 [W]
EnergyOutflow : 5.6723371e-09 [W]
EnergyBalance : -6.4633993e-14 [W]
rho max/avg/min : 1.176405 1.176405 1.176405
T   max/avg/min : 300 300 300
P   max/avg/min : 101324.42 101324.42 101324.42
Prg max/avg/min : 101325 101325 101325
U   max/avg/min : 2.873518e-11 2.873518e-11 0
Prg max-min : 0
 
sngrad(rho) :-0.00013398883 -0.00013398883 -0.00013398883
 
Iteration Number = 56

DILUPBiCG:  Solving for Ux, Initial residual = 2.0567667e-10, Final residual = 2.0567667e-10, No Iterations 0
DILUPBiCG:  Solving for Uy, Initial residual = 1.1851694e-16, Final residual = 1.1851694e-16, No Iterations 0
DILUPBiCG:  Solving for Uz, Initial residual = 0.99999876, Final residual = 0, No Iterations 1
DILUPBiCG:  Solving for h, Initial residual = 1, Final residual = 0, No Iterations 1
GAMG:  Solving for p_rgh, Initial residual = 1, Final residual = 0, No Iterations 1
time step continuity errors : sum local = 4.7949769e-14, global = -4.7949769e-14, cumulative = -1.5340402e-07
ExecutionTime = 0.31 s  ClockTime = 0 s
Inflow      : 2.3405255e-13 [kg/s]
Outflow     : 2.3404989e-13 [kg/s]
EnergyInflow  : 7.063706e-08 [W]
EnergyOutflow : 7.0636256e-08 [W]
EnergyBalance : -8.0460041e-13 [W]
rho max/avg/min : 1.176405 1.176405 1.176405
T   max/avg/min : 300 300 300
P   max/avg/min : 101324.42 101324.42 101324.42
Prg max/avg/min : 101325 101325 101325
U   max/avg/min : 3.5783232e-10 3.5783232e-10 0
Prg max-min : 0
 
sngrad(rho) :-0.00013398949 -0.00013398949 -0.00013398949
 
Iteration Number = 57

DILUPBiCG:  Solving for Ux, Initial residual = 8.806369e-10, Final residual = 8.806369e-10, No Iterations 0
DILUPBiCG:  Solving for Uy, Initial residual = 2.8136856e-17, Final residual = 2.8136856e-17, No Iterations 0
DILUPBiCG:  Solving for Uz, Initial residual = 0.99999879, Final residual = 0, No Iterations 1
DILUPBiCG:  Solving for h, Initial residual = 1, Final residual = 0, No Iterations 1
GAMG:  Solving for p_rgh, Initial residual = 1, Final residual = 0, No Iterations 1
time step continuity errors : sum local = 9.8233991e-15, global = 9.8233991e-15, cumulative = -1.5340401e-07
ExecutionTime = 0.32 s  ClockTime = 0 s
Inflow      : -4.7907927e-14 [kg/s]
Outflow     : -4.7907381e-14 [kg/s]
EnergyInflow  : -1.4458612e-08 [W]
EnergyOutflow : -1.4458448e-08 [W]
EnergyBalance : 1.6483771e-13 [W]
rho max/avg/min : 1.176405 1.176405 1.176405
T   max/avg/min : 300 300 300
P   max/avg/min : 101324.42 101324.42 101324.42
Prg max/avg/min : 101325 101325 101325
U   max/avg/min : 0 -7.3244253e-11 -7.3244254e-11
Prg max-min : 0
 
sngrad(rho) :-0.00013398762 -0.00013398762 -0.00013398762
 
Iteration Number = 58

DILUPBiCG:  Solving for Ux, Initial residual = 2.9972335e-08, Final residual = 2.9972335e-08, No Iterations 0
DILUPBiCG:  Solving for Uy, Initial residual = 1.2325889e-12, Final residual = 1.2325889e-12, No Iterations 0
DILUPBiCG:  Solving for Uz, Initial residual = 0.99982154, Final residual = 0, No Iterations 1
DILUPBiCG:  Solving for h, Initial residual = 1, Final residual = 0, No Iterations 1
GAMG:  Solving for p_rgh, Initial residual = 1, Final residual = 0, No Iterations 1
time step continuity errors : sum local = 6.5087336e-15, global = 6.5087336e-15, cumulative = -1.53404e-07
ExecutionTime = 0.32 s  ClockTime = 0 s
Inflow      : -3.1784365e-14 [kg/s]
Outflow     : -3.1784003e-14 [kg/s]
EnergyInflow  : -9.5925214e-09 [W]
EnergyOutflow : -9.5924122e-09 [W]
EnergyBalance : 1.0921699e-13 [W]
rho max/avg/min : 1.176405 1.176405 1.176405
T   max/avg/min : 300 300 300
P   max/avg/min : 101324.42 101324.42 101324.42
Prg max/avg/min : 101325 101325 101325
U   max/avg/min : 0 -4.8593672e-11 -4.8593672e-11
Prg max-min : 0
 
sngrad(rho) :-0.00013398877 -0.00013398877 -0.00013398877
 
Iteration Number = 59

DILUPBiCG:  Solving for Ux, Initial residual = 2.1324121e-08, Final residual = 2.1324121e-08, No Iterations 0
DILUPBiCG:  Solving for Uy, Initial residual = 7.3097736e-13, Final residual = 7.3097736e-13, No Iterations 0
DILUPBiCG:  Solving for Uz, Initial residual = 0.99999877, Final residual = 0, No Iterations 1
DILUPBiCG:  Solving for h, Initial residual = 1, Final residual = 0, No Iterations 1
GAMG:  Solving for p_rgh, Initial residual = 1, Final residual = 0, No Iterations 1
time step continuity errors : sum local = 2.6402524e-14, global = -2.6402524e-14, cumulative = -1.5340403e-07
ExecutionTime = 0.32 s  ClockTime = 0 s
Inflow      : 1.2887777e-13 [kg/s]
Outflow     : 1.288763e-13 [kg/s]
EnergyInflow  : 3.889531e-08 [W]
EnergyOutflow : 3.8894867e-08 [W]
EnergyBalance : -4.4303615e-13 [W]
rho max/avg/min : 1.176405 1.176405 1.176405
T   max/avg/min : 300 300 300
P   max/avg/min : 101324.42 101324.42 101324.42
Prg max/avg/min : 101325 101325 101325
U   max/avg/min : 1.9703536e-10 1.9703536e-10 0
Prg max-min : 0
 
sngrad(rho) :-0.00013398909 -0.00013398909 -0.00013398909
 
Iteration Number = 60

DILUPBiCG:  Solving for Ux, Initial residual = 4.7733868e-09, Final residual = 4.7733868e-09, No Iterations 0
DILUPBiCG:  Solving for Uy, Initial residual = 3.179307e-13, Final residual = 3.179307e-13, No Iterations 0
DILUPBiCG:  Solving for Uz, Initial residual = 0.99989671, Final residual = 0, No Iterations 1
DILUPBiCG:  Solving for h, Initial residual = 0.99999999, Final residual = 0, No Iterations 1
GAMG:  Solving for p_rgh, Initial residual = 0, Final residual = 0, No Iterations 0
time step continuity errors : sum local = 1.943296e-14, global = -1.943296e-14, cumulative = -1.5340405e-07
ExecutionTime = 0.32 s  ClockTime = 0 s
Inflow      : 9.4878782e-14 [kg/s]
Outflow     : 9.4877701e-14 [kg/s]
EnergyInflow  : 2.8634416e-08 [W]
EnergyOutflow : 2.863409e-08 [W]
EnergyBalance : -3.260867e-13 [W]
rho max/avg/min : 1.176405 1.176405 1.176405
T   max/avg/min : 300 300 300
P   max/avg/min : 101324.42 101324.42 101324.42
Prg max/avg/min : 101325 101325 101325
U   max/avg/min : 1.4505586e-10 1.4505586e-10 0
Prg max-min : 0
 
sngrad(rho) :-0.00013398862 -0.00013398862 -0.00013398862
 
Iteration Number = 61

DILUPBiCG:  Solving for Ux, Initial residual = 2.2946767e-08, Final residual = 2.2946767e-08, No Iterations 0
DILUPBiCG:  Solving for Uy, Initial residual = 7.5461145e-14, Final residual = 7.5461145e-14, No Iterations 0
DILUPBiCG:  Solving for Uz, Initial residual = 0.9998597, Final residual = 0, No Iterations 1
DILUPBiCG:  Solving for h, Initial residual = 0.99999991, Final residual = 0, No Iterations 1
GAMG:  Solving for p_rgh, Initial residual = 0, Final residual = 0, No Iterations 0
time step continuity errors : sum local = 1.4305444e-14, global = -1.4305444e-14, cumulative = -1.5340406e-07
ExecutionTime = 0.32 s  ClockTime = 0 s
Inflow      : 6.9849e-14 [kg/s]
Outflow     : 6.9848205e-14 [kg/s]
EnergyInflow  : 2.1080428e-08 [W]
EnergyOutflow : 2.1080188e-08 [W]
EnergyBalance : -2.4004636e-13 [W]
rho max/avg/min : 1.176405 1.176405 1.176405
T   max/avg/min : 300 300 300
P   max/avg/min : 101324.42 101324.42 101324.42
Prg max/avg/min : 101325 101325 101325
U   max/avg/min : 1.0678896e-10 1.0678896e-10 0
Prg max-min : 0
 
sngrad(rho) :-0.00013398881 -0.00013398881 -0.00013398881
 
Iteration Number = 62

DILUPBiCG:  Solving for Ux, Initial residual = 1.3935305e-08, Final residual = 1.3935305e-08, No Iterations 0
DILUPBiCG:  Solving for Uy, Initial residual = 1.7910772e-14, Final residual = 1.7910772e-14, No Iterations 0
DILUPBiCG:  Solving for Uz, Initial residual = 0.99980944, Final residual = 0, No Iterations 1
DILUPBiCG:  Solving for h, Initial residual = 0.99999966, Final residual = 0, No Iterations 1
GAMG:  Solving for p_rgh, Initial residual = 0, Final residual = 0, No Iterations 0
time step continuity errors : sum local = 1.0534446e-14, global = -1.0534446e-14, cumulative = -1.5340407e-07
ExecutionTime = 0.32 s  ClockTime = 0 s
Inflow      : 5.1422275e-14 [kg/s]
Outflow     : 5.1421689e-14 [kg/s]
EnergyInflow  : 1.5519243e-08 [W]
EnergyOutflow : 1.5519066e-08 [W]
EnergyBalance : -1.7676874e-13 [W]
rho max/avg/min : 1.176405 1.176405 1.176405
T   max/avg/min : 300 300 300
P   max/avg/min : 101324.42 101324.42 101324.42
Prg max/avg/min : 101325 101325 101325
U   max/avg/min : 7.8617181e-11 7.8617181e-11 0
Prg max-min : 0
 
sngrad(rho) :-0.00013398883 -0.00013398883 -0.00013398883
 
Iteration Number = 63

DILUPBiCG:  Solving for Ux, Initial residual = 5.0525317e-09, Final residual = 5.0525317e-09, No Iterations 0
DILUPBiCG:  Solving for Uy, Initial residual = 4.2511379e-15, Final residual = 4.2511379e-15, No Iterations 0
DILUPBiCG:  Solving for Uz, Initial residual = 0.99974117, Final residual = 0, No Iterations 1
DILUPBiCG:  Solving for h, Initial residual = 0.99999938, Final residual = 0, No Iterations 1
GAMG:  Solving for p_rgh, Initial residual = 0, Final residual = 0, No Iterations 0
time step continuity errors : sum local = 7.7524509e-15, global = -7.7524509e-15, cumulative = -1.5340408e-07
ExecutionTime = 0.32 s  ClockTime = 0 s
Inflow      : 3.7856667e-14 [kg/s]
Outflow     : 3.7856236e-14 [kg/s]
EnergyInflow  : 1.1425142e-08 [W]
EnergyOutflow : 1.1425012e-08 [W]
EnergyBalance : -1.3008666e-13 [W]
rho max/avg/min : 1.176405 1.176405 1.176405
T   max/avg/min : 300 300 300
P   max/avg/min : 101324.42 101324.42 101324.42
Prg max/avg/min : 101325 101325 101325
U   max/avg/min : 5.7877339e-11 5.7877339e-11 0
Prg max-min : 0
 
sngrad(rho) :-0.00013398883 -0.00013398883 -0.00013398883
 
Iteration Number = 64

DILUPBiCG:  Solving for Ux, Initial residual = 1.5865615e-09, Final residual = 1.5865615e-09, No Iterations 0
DILUPBiCG:  Solving for Uy, Initial residual = 1.0090114e-15, Final residual = 1.0090114e-15, No Iterations 0
DILUPBiCG:  Solving for Uz, Initial residual = 0.99964845, Final residual = 0, No Iterations 1
DILUPBiCG:  Solving for h, Initial residual = 0.99999913, Final residual = 0, No Iterations 1
GAMG:  Solving for p_rgh, Initial residual = 1, Final residual = 0, No Iterations 1
time step continuity errors : sum local = 5.7091271e-15, global = -5.7091271e-15, cumulative = -1.5340409e-07
ExecutionTime = 0.32 s  ClockTime = 0 s
Inflow      : 2.7869775e-14 [kg/s]
Outflow     : 2.7869458e-14 [kg/s]
EnergyInflow  : 8.4110981e-09 [W]
EnergyOutflow : 8.4110023e-09 [W]
EnergyBalance : -9.5799545e-14 [W]
rho max/avg/min : 1.176405 1.176405 1.176405
T   max/avg/min : 300 300 300
P   max/avg/min : 101324.42 101324.42 101324.42
Prg max/avg/min : 101325 101325 101325
U   max/avg/min : 4.2608833e-11 4.2608833e-11 0
Prg max-min : 0
 
sngrad(rho) :-0.00013398883 -0.00013398883 -0.00013398883
 
Iteration Number = 65

DILUPBiCG:  Solving for Ux, Initial residual = 5.6358642e-10, Final residual = 5.6358642e-10, No Iterations 0
DILUPBiCG:  Solving for Uy, Initial residual = 2.3948977e-16, Final residual = 2.3948977e-16, No Iterations 0
DILUPBiCG:  Solving for Uz, Initial residual = 0.99999876, Final residual = 0, No Iterations 1
DILUPBiCG:  Solving for h, Initial residual = 1, Final residual = 0, No Iterations 1
GAMG:  Solving for p_rgh, Initial residual = 1, Final residual = 0, No Iterations 1
time step continuity errors : sum local = 4.9308974e-14, global = -4.9308974e-14, cumulative = -1.5340414e-07
ExecutionTime = 0.32 s  ClockTime = 0 s
Inflow      : 2.4073315e-13 [kg/s]
Outflow     : 2.4073041e-13 [kg/s]
EnergyInflow  : 7.2653265e-08 [W]
EnergyOutflow : 7.2652438e-08 [W]
EnergyBalance : -8.2740795e-13 [W]
rho max/avg/min : 1.176405 1.176405 1.176405
T   max/avg/min : 300 300 300
P   max/avg/min : 101324.42 101324.42 101324.42
Prg max/avg/min : 101325 101325 101325
U   max/avg/min : 3.6804598e-10 3.6804598e-10 0
Prg max-min : 0
 
sngrad(rho) :-0.00013398949 -0.00013398949 -0.00013398949
 
Iteration Number = 66

DILUPBiCG:  Solving for Ux, Initial residual = 1.2109921e-09, Final residual = 1.2109921e-09, No Iterations 0
DILUPBiCG:  Solving for Uy, Initial residual = 5.6842457e-17, Final residual = 5.6842457e-17, No Iterations 0
DILUPBiCG:  Solving for Uz, Initial residual = 0.9999447, Final residual = 0, No Iterations 1
DILUPBiCG:  Solving for h, Initial residual = 1, Final residual = 0, No Iterations 1
GAMG:  Solving for p_rgh, Initial residual = 0, Final residual = 0, No Iterations 0
time step continuity errors : sum local = 3.6313216e-14, global = -3.6313216e-14, cumulative = -1.5340417e-07
ExecutionTime = 0.33 s  ClockTime = 0 s
Inflow      : 1.7722583e-13 [kg/s]
Outflow     : 1.7722381e-13 [kg/s]
EnergyInflow  : 5.3486756e-08 [W]
EnergyOutflow : 5.3486147e-08 [W]
EnergyBalance : -6.0933974e-13 [W]
rho max/avg/min : 1.176405 1.176405 1.176405
T   max/avg/min : 300 300 300
P   max/avg/min : 101324.42 101324.42 101324.42
Prg max/avg/min : 101325 101325 101325
U   max/avg/min : 2.7095252e-10 2.7095252e-10 0
Prg max-min : 0
 
sngrad(rho) :-0.00013398828 -0.00013398828 -0.00013398828
 
Iteration Number = 67

DILUPBiCG:  Solving for Ux, Initial residual = 1.0258684e-07, Final residual = 1.0258684e-07, No Iterations 0
DILUPBiCG:  Solving for Uy, Initial residual = 1.3498304e-17, Final residual = 1.3498304e-17, No Iterations 0
DILUPBiCG:  Solving for Uz, Initial residual = 0.99992489, Final residual = 0, No Iterations 1
DILUPBiCG:  Solving for h, Initial residual = 0.99999996, Final residual = 0, No Iterations 1
GAMG:  Solving for p_rgh, Initial residual = 0, Final residual = 0, No Iterations 0
time step continuity errors : sum local = 2.6725983e-14, global = -2.6725983e-14, cumulative = -1.534042e-07
ExecutionTime = 0.33 s  ClockTime = 0 s
Inflow      : 1.3047224e-13 [kg/s]
Outflow     : 1.3047076e-13 [kg/s]
EnergyInflow  : 3.9376523e-08 [W]
EnergyOutflow : 3.9376075e-08 [W]
EnergyBalance : -4.4846399e-13 [W]
rho max/avg/min : 1.176405 1.176405 1.176405
T   max/avg/min : 300 300 300
P   max/avg/min : 101324.42 101324.42 101324.42
Prg max/avg/min : 101325 101325 101325
U   max/avg/min : 1.9947309e-10 1.9947309e-10 0
Prg max-min : 0
 
sngrad(rho) :-0.00013398877 -0.00013398877 -0.00013398877
 
Iteration Number = 68

DILUPBiCG:  Solving for Ux, Initial residual = 6.917048e-08, Final residual = 6.917048e-08, No Iterations 0
DILUPBiCG:  Solving for Uy, Initial residual = 3.1977924e-18, Final residual = 3.1977924e-18, No Iterations 0
DILUPBiCG:  Solving for Uz, Initial residual = 0.99989797, Final residual = 0, No Iterations 1
DILUPBiCG:  Solving for h, Initial residual = 0.99999984, Final residual = 0, No Iterations 1
GAMG:  Solving for p_rgh, Initial residual = 0, Final residual = 0, No Iterations 0
time step continuity errors : sum local = 1.9679745e-14, global = -1.9679745e-14, cumulative = -1.5340422e-07
ExecutionTime = 0.33 s  ClockTime = 0 s
Inflow      : 9.6052624e-14 [kg/s]
Outflow     : 9.605153e-14 [kg/s]
EnergyInflow  : 2.8988682e-08 [W]
EnergyOutflow : 2.8988352e-08 [W]
EnergyBalance : -3.3022751e-13 [W]
rho max/avg/min : 1.176405 1.176405 1.176405
T   max/avg/min : 300 300 300
P   max/avg/min : 101324.42 101324.42 101324.42
Prg max/avg/min : 101325 101325 101325
U   max/avg/min : 1.4685049e-10 1.4685049e-10 0
Prg max-min : 0
 
sngrad(rho) :-0.00013398882 -0.00013398882 -0.00013398882
 
Iteration Number = 69

DILUPBiCG:  Solving for Ux, Initial residual = 2.3980436e-08, Final residual = 2.3980436e-08, No Iterations 0
DILUPBiCG:  Solving for Uy, Initial residual = 7.5899676e-19, Final residual = 7.5899676e-19, No Iterations 0
DILUPBiCG:  Solving for Uz, Initial residual = 0.99986142, Final residual = 0, No Iterations 1
DILUPBiCG:  Solving for h, Initial residual = 0.99999968, Final residual = 0, No Iterations 1
GAMG:  Solving for p_rgh, Initial residual = 0, Final residual = 0, No Iterations 0
time step continuity errors : sum local = 1.448893e-14, global = -1.448893e-14, cumulative = -1.5340423e-07
ExecutionTime = 0.33 s  ClockTime = 0 s
Inflow      : 7.0713174e-14 [kg/s]
Outflow     : 7.0712368e-14 [kg/s]
EnergyInflow  : 2.1341236e-08 [W]
EnergyOutflow : 2.1340993e-08 [W]
EnergyBalance : -2.4312525e-13 [W]
rho max/avg/min : 1.176405 1.176405 1.176405
T   max/avg/min : 300 300 300
P   max/avg/min : 101324.42 101324.42 101324.42
Prg max/avg/min : 101325 101325 101325
U   max/avg/min : 1.0811016e-10 1.0811016e-10 0
Prg max-min : 0
 
sngrad(rho) :-0.00013398883 -0.00013398883 -0.00013398883
 
Iteration Number = 70

DILUPBiCG:  Solving for Ux, Initial residual = 7.0571707e-09, Final residual = 7.0571707e-09, No Iterations 0
DILUPBiCG:  Solving for Uy, Initial residual = 1.8017036e-19, Final residual = 1.8017036e-19, No Iterations 0
DILUPBiCG:  Solving for Uz, Initial residual = 0.99981176, Final residual = 1.1600903e-16, No Iterations 1
DILUPBiCG:  Solving for h, Initial residual = 0.99999953, Final residual = 0, No Iterations 1
GAMG:  Solving for p_rgh, Initial residual = 0, Final residual = 0, No Iterations 0
time step continuity errors : sum local = 1.0665928e-14, global = -1.0665928e-14, cumulative = -1.5340424e-07
ExecutionTime = 0.33 s  ClockTime = 0 s
Inflow      : 5.2058473e-14 [kg/s]
[...]
time step continuity errors : sum local = 7.9224883e-16, global = -7.9224883e-16, cumulative = -3.6213533e-06
ExecutionTime = 12.01 s  ClockTime = 12 s
Inflow      : 3.8510001e-15 [kg/s]
Outflow     : 3.8509561e-15 [kg/s]
EnergyInflow  : 1.1622318e-09 [W]
EnergyOutflow : 1.1622186e-09 [W]
EnergyBalance : -1.329399e-14 [W]
rho max/avg/min : 1.176405 1.176405 1.176405
T   max/avg/min : 300 300 300
P   max/avg/min : 101324.42 101324.42 101324.42
Prg max/avg/min : 101325 101325 101325
U   max/avg/min : 5.8876192e-12 5.8876192e-12 0
Prg max-min : 0
 
sngrad(rho) :-0.00013398882 -0.00013398882 -0.00013398882
 
Iteration Number = 2924

DILUPBiCG:  Solving for Ux, Initial residual = 5.24052e-10, Final residual = 5.24052e-10, No Iterations 0
DILUPBiCG:  Solving for Uy, Initial residual = 3.5208536e-13, Final residual = 3.5208536e-13, No Iterations 0
DILUPBiCG:  Solving for Uz, Initial residual = 0.99655483, Final residual = 0, No Iterations 1
DILUPBiCG:  Solving for h, Initial residual = 0.99999878, Final residual = 0, No Iterations 1
GAMG:  Solving for p_rgh, Initial residual = 0, Final residual = 0, No Iterations 0
time step continuity errors : sum local = 5.9074889e-16, global = -5.9074889e-16, cumulative = -3.6213533e-06
ExecutionTime = 12.01 s  ClockTime = 12 s
Inflow      : 2.8350754e-15 [kg/s]
Outflow     : 2.8350426e-15 [kg/s]
EnergyInflow  : 8.5562576e-10 [W]
EnergyOutflow : 8.5561585e-10 [W]
EnergyBalance : -9.9128067e-15 [W]
rho max/avg/min : 1.176405 1.176405 1.176405
T   max/avg/min : 300 300 300
P   max/avg/min : 101324.42 101324.42 101324.42
Prg max/avg/min : 101325 101325 101325
U   max/avg/min : 4.334418e-12 4.3344177e-12 0
Prg max-min : 0
 
sngrad(rho) :-0.00013398883 -0.00013398883 -0.00013398883
 
Iteration Number = 2925

DILUPBiCG:  Solving for Ux, Initial residual = 1.7490268e-10, Final residual = 1.7490268e-10, No Iterations 0
DILUPBiCG:  Solving for Uy, Initial residual = 8.3567781e-14, Final residual = 8.3567781e-14, No Iterations 0
DILUPBiCG:  Solving for Uz, Initial residual = 0.99532605, Final residual = 1.8003408e-16, No Iterations 1
DILUPBiCG:  Solving for h, Initial residual = 0.99999368, Final residual = 0, No Iterations 1
GAMG:  Solving for p_rgh, Initial residual = 0, Final residual = 0, No Iterations 0
time step continuity errors : sum local = 4.2951425e-16, global = -4.2951425e-16, cumulative = -3.6213533e-06
ExecutionTime = 12.01 s  ClockTime = 12 s
Inflow      : 2.0871596e-15 [kg/s]
Outflow     : 2.0871358e-15 [kg/s]
EnergyInflow  : 6.2990478e-10 [W]
EnergyOutflow : 6.2989758e-10 [W]
EnergyBalance : -7.2072783e-15 [W]
rho max/avg/min : 1.176405 1.176405 1.176405
T   max/avg/min : 300 300 300
P   max/avg/min : 101324.42 101324.42 101324.42
Prg max/avg/min : 101325 101325 101325
U   max/avg/min : 3.1909636e-12 3.1909636e-12 0
Prg max-min : 0
 
sngrad(rho) :-0.00013398883 -0.00013398883 -0.00013398883
 
Iteration Number = 2926

DILUPBiCG:  Solving for Ux, Initial residual = 4.3605336e-11, Final residual = 4.3605336e-11, No Iterations 0
DILUPBiCG:  Solving for Uy, Initial residual = 1.9834881e-14, Final residual = 1.9834881e-14, No Iterations 0
DILUPBiCG:  Solving for Uz, Initial residual = 0.99366179, Final residual = 1.2206941e-16, No Iterations 1
DILUPBiCG:  Solving for h, Initial residual = 0.99998559, Final residual = 1.421065e-16, No Iterations 1
GAMG:  Solving for p_rgh, Initial residual = 0, Final residual = 0, No Iterations 0
time step continuity errors : sum local = 3.2416105e-16, global = -3.2416105e-16, cumulative = -3.6213533e-06
ExecutionTime = 12.01 s  ClockTime = 12 s
Inflow      : 1.5365502e-15 [kg/s]
Outflow     : 1.5365322e-15 [kg/s]
EnergyInflow  : 4.6373085e-10 [W]
EnergyOutflow : 4.6372541e-10 [W]
EnergyBalance : -5.4394445e-15 [W]
rho max/avg/min : 1.176405 1.176405 1.176405
T   max/avg/min : 300 300 300
P   max/avg/min : 101324.42 101324.42 101324.42
Prg max/avg/min : 101325 101325 101325
U   max/avg/min : 2.3491618e-12 2.3491615e-12 0
Prg max-min : 0
 
sngrad(rho) :-0.00013398883 -0.00013398883 -0.00013398883
 
Iteration Number = 2927

DILUPBiCG:  Solving for Ux, Initial residual = 1.0462182e-11, Final residual = 1.0462182e-11, No Iterations 0
DILUPBiCG:  Solving for Uy, Initial residual = 4.7078218e-15, Final residual = 4.7078218e-15, No Iterations 0
DILUPBiCG:  Solving for Uz, Initial residual = 0.99141006, Final residual = 0, No Iterations 1
DILUPBiCG:  Solving for h, Initial residual = 0.99997881, Final residual = 0, No Iterations 1
GAMG:  Solving for p_rgh, Initial residual = 0, Final residual = 0, No Iterations 0
time step continuity errors : sum local = 2.2515013e-16, global = -2.2515013e-16, cumulative = -3.6213533e-06
ExecutionTime = 12.01 s  ClockTime = 12 s
Inflow      : 1.1311958e-15 [kg/s]
Outflow     : 1.1311833e-15 [kg/s]
EnergyInflow  : 3.4139489e-10 [W]
EnergyOutflow : 3.4139111e-10 [W]
EnergyBalance : -3.7780345e-15 [W]
rho max/avg/min : 1.176405 1.176405 1.176405
T   max/avg/min : 300 300 300
P   max/avg/min : 101324.42 101324.42 101324.42
Prg max/avg/min : 101325 101325 101325
U   max/avg/min : 1.7294342e-12 1.7294342e-12 0
Prg max-min : 0
 
sngrad(rho) :-0.00013398883 -0.00013398883 -0.00013398883
 
Iteration Number = 2928

DILUPBiCG:  Solving for Ux, Initial residual = 2.6532216e-12, Final residual = 2.6532216e-12, No Iterations 0
DILUPBiCG:  Solving for Uy, Initial residual = 1.1174023e-15, Final residual = 1.1174023e-15, No Iterations 0
DILUPBiCG:  Solving for Uz, Initial residual = 0.98836774, Final residual = 0, No Iterations 1
DILUPBiCG:  Solving for h, Initial residual = 0.99996867, Final residual = 0, No Iterations 1
GAMG:  Solving for p_rgh, Initial residual = 0, Final residual = 0, No Iterations 0
time step continuity errors : sum local = 1.6017511e-16, global = -1.6017511e-16, cumulative = -3.6213533e-06
ExecutionTime = 12.01 s  ClockTime = 12 s
Inflow      : 8.3277739e-16 [kg/s]
Outflow     : 8.3276849e-16 [kg/s]
EnergyInflow  : 2.5133222e-10 [W]
EnergyOutflow : 2.5132953e-10 [W]
EnergyBalance : -2.6877493e-15 [W]
rho max/avg/min : 1.176405 1.176405 1.176405
T   max/avg/min : 300 300 300
P   max/avg/min : 101324.42 101324.42 101324.42
Prg max/avg/min : 101325 101325 101325
U   max/avg/min : 1.2731959e-12 1.2731959e-12 0
Prg max-min : 0
 
sngrad(rho) :-0.00013398883 -0.00013398883 -0.00013398883
 
Iteration Number = 2929

DILUPBiCG:  Solving for Ux, Initial residual = 7.7156918e-13, Final residual = 7.7156918e-13, No Iterations 0
DILUPBiCG:  Solving for Uy, Initial residual = 2.6521792e-16, Final residual = 2.6521792e-16, No Iterations 0
DILUPBiCG:  Solving for Uz, Initial residual = 0.98426501, Final residual = 0, No Iterations 1
DILUPBiCG:  Solving for h, Initial residual = 0.99995997, Final residual = 0, No Iterations 1
GAMG:  Solving for p_rgh, Initial residual = 0, Final residual = 0, No Iterations 0
time step continuity errors : sum local = 1.2223292e-16, global = -1.2223292e-16, cumulative = -3.6213533e-06
ExecutionTime = 12.02 s  ClockTime = 12 s
Inflow      : 6.1308416e-16 [kg/s]
Outflow     : 6.1307737e-16 [kg/s]
EnergyInflow  : 1.850288e-10 [W]
EnergyOutflow : 1.8502675e-10 [W]
EnergyBalance : -2.0510767e-15 [W]
rho max/avg/min : 1.176405 1.176405 1.176405
T   max/avg/min : 300 300 300
P   max/avg/min : 101324.42 101324.42 101324.42
Prg max/avg/min : 101325 101325 101325
U   max/avg/min : 9.3731653e-13 9.3731653e-13 0
Prg max-min : 0
 
sngrad(rho) :-0.00013398883 -0.00013398883 -0.00013398883
 
Iteration Number = 2930

DILUPBiCG:  Solving for Ux, Initial residual = 2.5958745e-13, Final residual = 2.5958745e-13, No Iterations 0
DILUPBiCG:  Solving for Uy, Initial residual = 6.2956508e-17, Final residual = 6.2956508e-17, No Iterations 0
DILUPBiCG:  Solving for Uz, Initial residual = 0.97874635, Final residual = 0, No Iterations 1
DILUPBiCG:  Solving for h, Initial residual = 0.99994457, Final residual = 0, No Iterations 1
GAMG:  Solving for p_rgh, Initial residual = 0, Final residual = 0, No Iterations 0
time step continuity errors : sum local = 9.5099624e-17, global = -9.5099624e-17, cumulative = -3.6213533e-06
ExecutionTime = 12.02 s  ClockTime = 12 s
Inflow      : 4.5134764e-16 [kg/s]
Outflow     : 4.5134235e-16 [kg/s]
EnergyInflow  : 1.3621672e-10 [W]
EnergyOutflow : 1.3621512e-10 [W]
EnergyBalance : -1.5957782e-15 [W]
rho max/avg/min : 1.176405 1.176405 1.176405
T   max/avg/min : 300 300 300
P   max/avg/min : 101324.42 101324.42 101324.42
Prg max/avg/min : 101325 101325 101325
U   max/avg/min : 6.9004491e-13 6.9004491e-13 0
Prg max-min : 0
 
sngrad(rho) :-0.00013398883 -0.00013398883 -0.00013398883
 
Iteration Number = 2931

DILUPBiCG:  Solving for Ux, Initial residual = 1.1829765e-13, Final residual = 1.1829765e-13, No Iterations 0
DILUPBiCG:  Solving for Uy, Initial residual = 1.4942783e-17, Final residual = 1.4942783e-17, No Iterations 0
DILUPBiCG:  Solving for Uz, Initial residual = 0.9713485, Final residual = 1.3795194e-16, No Iterations 1
DILUPBiCG:  Solving for h, Initial residual = 0.9999345, Final residual = 0, No Iterations 1
GAMG:  Solving for p_rgh, Initial residual = 0, Final residual = 0, No Iterations 0
time step continuity errors : sum local = 6.438958e-17, global = -6.438958e-17, cumulative = -3.6213533e-06
ExecutionTime = 12.02 s  ClockTime = 12 s
Inflow      : 3.3227851e-16 [kg/s]
Outflow     : 3.3227493e-16 [kg/s]
EnergyInflow  : 1.0028165e-10 [W]
EnergyOutflow : 1.0028057e-10 [W]
EnergyBalance : -1.0804615e-15 [W]
rho max/avg/min : 1.176405 1.176405 1.176405
T   max/avg/min : 300 300 300
P   max/avg/min : 101324.42 101324.42 101324.42
Prg max/avg/min : 101325 101325 101325
U   max/avg/min : 5.0800552e-13 5.0800552e-13 0
Prg max-min : 0
 
sngrad(rho) :-0.00013398883 -0.00013398883 -0.00013398883
 
Iteration Number = 2932

DILUPBiCG:  Solving for Ux, Initial residual = 5.6688834e-14, Final residual = 5.6688834e-14, No Iterations 0
DILUPBiCG:  Solving for Uy, Initial residual = 3.5466829e-18, Final residual = 3.5466829e-18, No Iterations 0
DILUPBiCG:  Solving for Uz, Initial residual = 0.961477, Final residual = 0, No Iterations 1
DILUPBiCG:  Solving for h, Initial residual = 0.99989707, Final residual = 0, No Iterations 1
GAMG:  Solving for p_rgh, Initial residual = 0, Final residual = 0, No Iterations 0
time step continuity errors : sum local = 4.930422e-17, global = -4.930422e-17, cumulative = -3.6213533e-06
ExecutionTime = 12.02 s  ClockTime = 12 s
Inflow      : 2.4462077e-16 [kg/s]
Outflow     : 2.4461803e-16 [kg/s]
EnergyInflow  : 7.382655e-11 [W]
EnergyOutflow : 7.3825722e-11 [W]
EnergyBalance : -8.2732817e-16 [W]
rho max/avg/min : 1.176405 1.176405 1.176405
T   max/avg/min : 300 300 300
P   max/avg/min : 101324.42 101324.42 101324.42
Prg max/avg/min : 101325 101325 101325
U   max/avg/min : 3.7398959e-13 3.7398959e-13 0
Prg max-min : 0
 
sngrad(rho) :-0.00013398883 -0.00013398883 -0.00013398883
 
Iteration Number = 2933

DILUPBiCG:  Solving for Ux, Initial residual = 3.1602881e-14, Final residual = 3.1602881e-14, No Iterations 0
DILUPBiCG:  Solving for Uy, Initial residual = 8.4180836e-19, Final residual = 8.4180836e-19, No Iterations 0
DILUPBiCG:  Solving for Uz, Initial residual = 0.94838513, Final residual = 1.2425828e-16, No Iterations 1
DILUPBiCG:  Solving for h, Initial residual = 0.99987992, Final residual = 0, No Iterations 1
GAMG:  Solving for p_rgh, Initial residual = 0, Final residual = 0, No Iterations 0
time step continuity errors : sum local = 3.3641968e-17, global = -3.3641968e-17, cumulative = -3.6213533e-06
ExecutionTime = 12.02 s  ClockTime = 12 s
Inflow      : 1.8008785e-16 [kg/s]
Outflow     : 1.8008598e-16 [kg/s]
EnergyInflow  : 5.4350514e-11 [W]
EnergyOutflow : 5.4349949e-11 [W]
EnergyBalance : -5.6451451e-16 [W]
rho max/avg/min : 1.176405 1.176405 1.176405
T   max/avg/min : 300 300 300
P   max/avg/min : 101324.42 101324.42 101324.42
Prg max/avg/min : 101325 101325 101325
U   max/avg/min : 2.7532814e-13 2.7532814e-13 0
Prg max-min : 0
 
sngrad(rho) :-0.00013398883 -0.00013398883 -0.00013398883
 
Iteration Number = 2934

DILUPBiCG:  Solving for Ux, Initial residual = 1.4296588e-14, Final residual = 1.4296588e-14, No Iterations 0
DILUPBiCG:  Solving for Uy, Initial residual = 1.9980396e-19, Final residual = 1.9980396e-19, No Iterations 0
DILUPBiCG:  Solving for Uz, Initial residual = 0.93116259, Final residual = 0, No Iterations 1
DILUPBiCG:  Solving for h, Initial residual = 0.99975987, Final residual = 0, No Iterations 1
GAMG:  Solving for p_rgh, Initial residual = 0, Final residual = 0, No Iterations 0
time step continuity errors : sum local = 2.1777377e-17, global = -2.1777377e-17, cumulative = -3.6213533e-06
ExecutionTime = 12.02 s  ClockTime = 12 s
Inflow      : 1.3257923e-16 [kg/s]
Outflow     : 1.3257802e-16 [kg/s]
EnergyInflow  : 4.0012412e-11 [W]
EnergyOutflow : 4.0012047e-11 [W]
EnergyBalance : -3.6542587e-16 [W]
rho max/avg/min : 1.176405 1.176405 1.176405
T   max/avg/min : 300 300 300
P   max/avg/min : 101324.42 101324.42 101324.42
Prg max/avg/min : 101325 101325 101325
U   max/avg/min : 2.0269469e-13 2.0269469e-13 0
Prg max-min : 0
 
sngrad(rho) :-0.00013398883 -0.00013398883 -0.00013398883
 
Iteration Number = 2935

DILUPBiCG:  Solving for Ux, Initial residual = 7.5682299e-15, Final residual = 7.5682299e-15, No Iterations 0
DILUPBiCG:  Solving for Uy, Initial residual = 3.8052785e-20, Final residual = 3.8052785e-20, No Iterations 0
DILUPBiCG:  Solving for Uz, Initial residual = 0.90874649, Final residual = 0, No Iterations 1
DILUPBiCG:  Solving for h, Initial residual = 0.99981989, Final residual = 0, No Iterations 1
GAMG:  Solving for p_rgh, Initial residual = 0, Final residual = 0, No Iterations 0
time step continuity errors : sum local = 1.273552e-17, global = -1.273552e-17, cumulative = -3.6213533e-06
ExecutionTime = 12.02 s  ClockTime = 12 s
Inflow      : 9.7603891e-17 [kg/s]
Outflow     : 9.7603183e-17 [kg/s]
EnergyInflow  : 2.9456854e-11 [W]
EnergyOutflow : 2.9456641e-11 [W]
EnergyBalance : -2.1370289e-16 [W]
rho max/avg/min : 1.176405 1.176405 1.176405
T   max/avg/min : 300 300 300
P   max/avg/min : 101324.42 101324.42 101324.42
Prg max/avg/min : 101325 101325 101325
U   max/avg/min : 1.4922248e-13 1.4922248e-13 0
Prg max-min : 0
 
sngrad(rho) :-0.00013398883 -0.00013398883 -0.00013398883
 
Iteration Number = 2936

DILUPBiCG:  Solving for Ux, Initial residual = 4.2474031e-15, Final residual = 4.2474031e-15, No Iterations 0
DILUPBiCG:  Solving for Uy, Initial residual = 1.4766367e-20, Final residual = 1.4766367e-20, No Iterations 0
DILUPBiCG:  Solving for Uz, Initial residual = 0.87997173, Final residual = 0, No Iterations 1
DILUPBiCG:  Solving for h, Initial residual = 0.99927994, Final residual = 0, No Iterations 1
GAMG:  Solving for p_rgh, Initial residual = 0, Final residual = 0, No Iterations 0
time step continuity errors : sum local = 4.5112547e-18, global = -4.5112547e-18, cumulative = -3.6213533e-06
ExecutionTime = 12.03 s  ClockTime = 12 s
Inflow      : 7.1855326e-17 [kg/s]
Outflow     : 7.1855075e-17 [kg/s]
EnergyInflow  : 2.1685937e-11 [W]
EnergyOutflow : 2.1685862e-11 [W]
EnergyBalance : -7.569916e-17 [W]
rho max/avg/min : 1.176405 1.176405 1.176405
T   max/avg/min : 300 300 300
P   max/avg/min : 101324.42 101324.42 101324.42
Prg max/avg/min : 101325 101325 101325
U   max/avg/min : 1.0985667e-13 1.0985667e-13 0
Prg max-min : 0
 
sngrad(rho) :-0.00013398883 -0.00013398883 -0.00013398883
 
Iteration Number = 2937

DILUPBiCG:  Solving for Ux, Initial residual = 3.3225673e-15, Final residual = 3.3225673e-15, No Iterations 0
DILUPBiCG:  Solving for Uy, Initial residual = 3.4534673e-21, Final residual = 3.4534673e-21, No Iterations 0
DILUPBiCG:  Solving for Uz, Initial residual = 0.84368435, Final residual = 9.407906e-17, No Iterations 1
DILUPBiCG:  Solving for h, Initial residual = 0.99963984, Final residual = 0, No Iterations 1
GAMG:  Solving for p_rgh, Initial residual = 0, Final residual = 0, No Iterations 0
time step continuity errors : sum local = 1.7290853e-17, global = -1.7290853e-17, cumulative = -3.6213533e-06
ExecutionTime = 12.03 s  ClockTime = 12 s
Inflow      : 5.2899439e-17 [kg/s]
Outflow     : 5.2898478e-17 [kg/s]
EnergyInflow  : 1.5965051e-11 [W]
EnergyOutflow : 1.5964761e-11 [W]
EnergyBalance : -2.9014169e-16 [W]
rho max/avg/min : 1.176405 1.176405 1.176405
T   max/avg/min : 300 300 300
P   max/avg/min : 101324.42 101324.42 101324.42
Prg max/avg/min : 101325 101325 101325
U   max/avg/min : 8.087555e-14 8.0875227e-14 0
Prg max-min : 0
 
sngrad(rho) :-0.00013398883 -0.00013398883 -0.00013398883
 
Iteration Number = 2938

DILUPBiCG:  Solving for Ux, Initial residual = 1.1568032e-15, Final residual = 1.1568032e-15, No Iterations 0
DILUPBiCG:  Solving for Uy, Initial residual = 7.8434331e-21, Final residual = 7.8434331e-21, No Iterations 0
DILUPBiCG:  Solving for Uz, Initial residual = 0.79893129, Final residual = 0, No Iterations 1
DILUPBiCG:  Solving for h, Initial residual = 0.99927994, Final residual = 0, No Iterations 1
GAMG:  Solving for p_rgh, Initial residual = 0, Final residual = 0, No Iterations 0
time step continuity errors : sum local = 7.3349162e-18, global = -7.3349162e-18, cumulative = -3.6213533e-06
ExecutionTime = 12.03 s  ClockTime = 12 s
Inflow      : 3.8944018e-17 [kg/s]
Outflow     : 3.894361e-17 [kg/s]
EnergyInflow  : 1.1753305e-11 [W]
EnergyOutflow : 1.1753182e-11 [W]
EnergyBalance : -1.2308039e-16 [W]
rho max/avg/min : 1.176405 1.176405 1.176405
T   max/avg/min : 300 300 300
P   max/avg/min : 101324.42 101324.42 101324.42
Prg max/avg/min : 101325 101325 101325
U   max/avg/min : 5.953974e-14 5.953974e-14 0
Prg max-min : 0
 
sngrad(rho) :-0.00013398883 -0.00013398883 -0.00013398883
 
Iteration Number = 2939

DILUPBiCG:  Solving for Ux, Initial residual = 4.2810957e-16, Final residual = 4.2810957e-16, No Iterations 0
DILUPBiCG:  Solving for Uy, Initial residual = 3.7931667e-21, Final residual = 3.7931667e-21, No Iterations 0
DILUPBiCG:  Solving for Uz, Initial residual = 0.74523668, Final residual = 0, No Iterations 1
DILUPBiCG:  Solving for h, Initial residual = 0.99927994, Final residual = 0, No Iterations 1
GAMG:  Solving for p_rgh, Initial residual = 0, Final residual = 0, No Iterations 0
time step continuity errors : sum local = 5.8631936e-18, global = -5.8631936e-18, cumulative = -3.6213533e-06
ExecutionTime = 12.03 s  ClockTime = 12 s
Inflow      : 2.8670274e-17 [kg/s]
Outflow     : 2.8669948e-17 [kg/s]
EnergyInflow  : 8.6526886e-12 [W]
EnergyOutflow : 8.6525902e-12 [W]
EnergyBalance : -9.8384788e-17 [W]
rho max/avg/min : 1.176405 1.176405 1.176405
T   max/avg/min : 300 300 300
P   max/avg/min : 101324.42 101324.42 101324.42
Prg max/avg/min : 101325 101325 101325
U   max/avg/min : 4.3832679e-14 4.3832679e-14 0
Prg max-min : 0
 
sngrad(rho) :-0.00013398883 -0.00013398883 -0.00013398883
 
Iteration Number = 2940

DILUPBiCG:  Solving for Ux, Initial residual = 3.033674e-16, Final residual = 3.033674e-16, No Iterations 0
DILUPBiCG:  Solving for Uy, Initial residual = 9.0031151e-22, Final residual = 9.0031151e-22, No Iterations 0
DILUPBiCG:  Solving for Uz, Initial residual = 0.68289379, Final residual = 0, No Iterations 1
DILUPBiCG:  Solving for h, Initial residual = 0, Final residual = 0, No Iterations 0
GAMG:  Solving for p_rgh, Initial residual = 0, Final residual = 0, No Iterations 0
time step continuity errors : sum local = 6.2859067e-19, global = -6.2859067e-19, cumulative = -3.6213533e-06
ExecutionTime = 12.03 s  ClockTime = 12 s
Inflow      : 2.1106825e-17 [kg/s]
Outflow     : 2.110679e-17 [kg/s]
EnergyInflow  : 6.3700399e-12 [W]
EnergyOutflow : 6.3700294e-12 [W]
EnergyBalance : -1.0547794e-17 [W]
rho max/avg/min : 1.176405 1.176405 1.176405
T   max/avg/min : 300 300 300
P   max/avg/min : 101324.42 101324.42 101324.42
Prg max/avg/min : 101325 101325 101325
U   max/avg/min : 3.2269267e-14 3.2269267e-14 0
Prg max-min : 0
 
sngrad(rho) :-0.00013398883 -0.00013398883 -0.00013398883
 

SIMPLE solution converged in 2940 iterations

End

